/*---------------------------------------------------------------------------*\
| =========                 |                                                 |
| \\      /  F ield         | OpenFOAM: The Open Source CFD Toolbox           |
|  \\    /   O peration     | Version:  2406                                  |
|   \\  /    A nd           | Website:  www.openfoam.com                      |
|    \\/     M anipulation  |                                                 |
\*---------------------------------------------------------------------------*/
Build  : _630d60de3b-20240620 OPENFOAM=2406 version=v2406
Arch   : "LSB;label=32;scalar=64"
Exec   : reactingFoam
Date   : Mar 20 2026
Time   : 08:54:54
Host   : RISEPC-MhOrpSuy
PID    : 15855
I/O    : uncollated
Case   : /home/chenhu/OpenFOAM/chenhu-v2406/run/Bunkering/Bunkering_02
nProcs : 1
trapFpe: Floating point exception trapping enabled (FOAM_SIGFPE).
fileModificationChecking : Monitoring run-time modified files using timeStampMaster (fileModificationSkew 5, maxFileModificationPolls 20)
allowSystemOperations : Allowing user-supplied system call operations

// * * * * * * * * * * * * * * * * * * * * * * * * * * * * * * * * * * * * * //
Create time

Create mesh for time = 0


PIMPLE: max iterations = 3
    field p	: relTol 0, tolerance 0.0001
    field U	: relTol 0, tolerance 1e-05
    field h	: relTol 0, tolerance 1e-06
    field "(H2|O2|H2O|N2)"	: relTol 0, tolerance 1e-06

Reading thermophysical properties

Selecting thermodynamics package 
{
    type            hePsiThermo;
    mixture         singleStepReactingMixture;
    transport       sutherland;
    thermo          janaf;
    energy          sensibleEnthalpy;
    equationOfState perfectGas;
    specie          specie;
}

Selecting chemistryReader foamChemistryReader
    elements not defined in "/home/chenhu/OpenFOAM/chenhu-v2406/run/Bunkering/Bunkering_02/constant/reactions"
Fuel heat of combustion :1.1997e+08
stoichiometric air-fuel ratio :7.93668
stoichiometric oxygen-fuel ratio :7.93668
Maximum products mass concentrations:
    H2O: 1
Reading field U

Using dynamicCode for patch nozzle on field U at line 73 in "/home/chenhu/OpenFOAM/chenhu-v2406/run/Bunkering/Bunkering_02/0/U/boundaryField/nozzle"
Creating new library in "dynamicCode/rampInletVelocity/platforms/linux64GccDPInt32Opt/lib/librampInletVelocity_c57a7e89f961b16d894500db83b7a28d85d4e51f.so"
Invoking wmake libso /home/chenhu/OpenFOAM/chenhu-v2406/run/Bunkering/Bunkering_02/dynamicCode/rampInletVelocity
wmake libso /home/chenhu/OpenFOAM/chenhu-v2406/run/Bunkering/Bunkering_02/dynamicCode/rampInletVelocity
    dep: fixedValueFvPatchFieldTemplate.C
    Ctoo: fixedValueFvPatchFieldTemplate.C
    link: /home/chenhu/OpenFOAM/chenhu-v2406/run/Bunkering/Bunkering_02/dynamicCode/rampInletVelocity/../platforms/linux64GccDPInt32Opt/lib/librampInletVelocity_c57a7e89f961b16d894500db83b7a28d85d4e51f.so
Reading/calculating face flux field phi

Creating turbulence model.

Selecting turbulence model type RAS
Selecting RAS turbulence model kEpsilon
RAS
{
    RASModel        kEpsilon;
    turbulence      on;
    printCoeffs     on;
    Cmu             0.09;
    C1              1.44;
    C2              1.92;
    C3              0;
    sigmak          1;
    sigmaEps        1.3;
}

Creating reaction model

Selecting combustion model none
Creating field dpdt

Creating field kinetic energy K

No MRF models present

No finite volume options present
Courant Number mean: 0 max: 0

Starting time loop

--> FOAM Warning : 


    From static Foam::autoPtr<Foam::functionObject> Foam::functionObject::New(const Foam::word&, const Foam::Time&, const Foam::dictionary&)
    in file db/functionObjects/functionObject/functionObject.C at line 129.
--> loading function object 'CourantNo'

Courant Number mean: 0 max: 0
deltaT = 1.2e-07
Time = 1.2e-07

diagonal:  Solving for rho, Initial residual = 0, Final residual = 0, No Iterations 0
PIMPLE: iteration 1
DILUPBiCGStab:  Solving for Ux, Initial residual = 0.999953, Final residual = 6.29285e-35, No Iterations 1
DILUPBiCGStab:  Solving for Uy, Initial residual = 0.00102214, Final residual = 1.94566e-35, No Iterations 1
DILUPBiCGStab:  Solving for Uz, Initial residual = 1, Final residual = 4.51315e-22, No Iterations 1
DILUPBiCGStab:  Solving for O2, Initial residual = 7.73779e-05, Final residual = 2.80158e-26, No Iterations 1
DILUPBiCGStab:  Solving for H2, Initial residual = 1, Final residual = 4.51316e-22, No Iterations 1
DILUPBiCGStab:  Solving for H2O:  solution singularity
DILUPBiCGStab:  Solving for h, Initial residual = 0.000291482, Final residual = 1.88437e-25, No Iterations 1
min/max(T) = 300, 300
DICPCG:  Solving for p, Initial residual = 0.45936, Final residual = 3.06241e-10, No Iterations 1
DICPCG:  Solving for p, Initial residual = 3.11781e-05, Final residual = 1.00721e-20, No Iterations 1
DICPCG:  Solving for p, Initial residual = 1.48195e-05, Final residual = 7.48898e-22, No Iterations 1
diagonal:  Solving for rho, Initial residual = 0, Final residual = 0, No Iterations 0
time step continuity errors : sum local = 6.43991e-15, global = 6.33145e-15, cumulative = 6.33145e-15
DICPCG:  Solving for p, Initial residual = 1.48196e-05, Final residual = 7.66919e-22, No Iterations 1
DICPCG:  Solving for p, Initial residual = 1.48195e-05, Final residual = 7.47322e-22, No Iterations 1
DICPCG:  Solving for p, Initial residual = 1.48196e-05, Final residual = 7.44897e-22, No Iterations 1
diagonal:  Solving for rho, Initial residual = 0, Final residual = 0, No Iterations 0
time step continuity errors : sum local = 6.43561e-15, global = 6.33585e-15, cumulative = 1.26673e-14
PIMPLE: iteration 2
DILUPBiCGStab:  Solving for Ux, Initial residual = 1.7269e-05, Final residual = 2.02234e-29, No Iterations 1
DILUPBiCGStab:  Solving for Uy, Initial residual = 0.129281, Final residual = 1.41541e-25, No Iterations 1
DILUPBiCGStab:  Solving for Uz, Initial residual = 3.45871e-08, Final residual = 9.58685e-30, No Iterations 1
DILUPBiCGStab:  Solving for O2, Initial residual = 6.40782e-07, Final residual = 2.81816e-28, No Iterations 1
DILUPBiCGStab:  Solving for H2, Initial residual = 2.08316e-08, Final residual = 9.40311e-30, No Iterations 1
DILUPBiCGStab:  Solving for H2O:  solution singularity
DILUPBiCGStab:  Solving for h, Initial residual = 1.04674e-07, Final residual = 4.66357e-29, No Iterations 1
min/max(T) = 300, 300.001
DICPCG:  Solving for p, Initial residual = 0.00363496, Final residual = 9.89892e-12, No Iterations 1
DICPCG:  Solving for p, Initial residual = 4.33515e-10, Final residual = 4.33515e-10, No Iterations 0
DICPCG:  Solving for p, Initial residual = 4.33515e-10, Final residual = 4.33515e-10, No Iterations 0
diagonal:  Solving for rho, Initial residual = 0, Final residual = 0, No Iterations 0
time step continuity errors : sum local = 6.43368e-15, global = 6.33147e-15, cumulative = 1.89988e-14
DICPCG:  Solving for p, Initial residual = 4.33515e-10, Final residual = 4.33515e-10, No Iterations 0
DICPCG:  Solving for p, Initial residual = 4.33515e-10, Final residual = 4.33515e-10, No Iterations 0
DICPCG:  Solving for p, Initial residual = 4.33515e-10, Final residual = 4.33515e-10, No Iterations 0
diagonal:  Solving for rho, Initial residual = 0, Final residual = 0, No Iterations 0
time step continuity errors : sum local = 6.43368e-15, global = 6.33147e-15, cumulative = 2.53302e-14
PIMPLE: iteration 3
DILUPBiCGStab:  Solving for Ux, Initial residual = 4.28813e-08, Final residual = 1.62652e-29, No Iterations 1
DILUPBiCGStab:  Solving for Uy, Initial residual = 0.0884993, Final residual = 4.30237e-23, No Iterations 1
DILUPBiCGStab:  Solving for Uz, Initial residual = 2.25047e-08, Final residual = 1.0666e-29, No Iterations 1
DILUPBiCGStab:  Solving for O2, Initial residual = 2.42195e-08, Final residual = 1.05806e-29, No Iterations 1
DILUPBiCGStab:  Solving for H2, Initial residual = 4.81357e-09, Final residual = 2.17578e-30, No Iterations 1
DILUPBiCGStab:  Solving for H2O:  solution singularity
DILUPBiCGStab:  Solving for h, Initial residual = 3.47513e-07, Final residual = 2.19056e-28, No Iterations 1
min/max(T) = 300, 300.012
DICPCG:  Solving for p, Initial residual = 3.6786e-08, Final residual = 9.86281e-17, No Iterations 1
DICPCG:  Solving for p, Initial residual = 2.13293e-10, Final residual = 2.13293e-10, No Iterations 0
DICPCG:  Solving for p, Initial residual = 2.13293e-10, Final residual = 2.13293e-10, No Iterations 0
diagonal:  Solving for rho, Initial residual = 0, Final residual = 0, No Iterations 0
time step continuity errors : sum local = 6.43132e-15, global = 6.33398e-15, cumulative = 3.16642e-14
DICPCG:  Solving for p, Initial residual = 2.13293e-10, Final residual = 2.13293e-10, No Iterations 0
DICPCG:  Solving for p, Initial residual = 2.13293e-10, Final residual = 2.13293e-10, No Iterations 0
DICPCG:  Solving for p, Initial residual = 2.13293e-10, Final residual = 2.13293e-10, No Iterations 0
diagonal:  Solving for rho, Initial residual = 0, Final residual = 0, No Iterations 0
time step continuity errors : sum local = 6.43132e-15, global = 6.33398e-15, cumulative = 3.79982e-14
DILUPBiCGStab:  Solving for epsilon, Initial residual = 0.000235068, Final residual = 2.72232e-26, No Iterations 1
DILUPBiCGStab:  Solving for k, Initial residual = 1, Final residual = 2.04027e-25, No Iterations 1
PIMPLE: not converged within 3 iterations
ExecutionTime = 8.12 s  ClockTime = 11 s

Courant Number mean: 2.29644e-19 max: 1.47625e-08
deltaT = 1.44e-07
Time = 2.64e-07

diagonal:  Solving for rho, Initial residual = 0, Final residual = 0, No Iterations 0
PIMPLE: iteration 1
DILUPBiCGStab:  Solving for Ux, Initial residual = 1.42887e-07, Final residual = 7.49783e-31, No Iterations 1
DILUPBiCGStab:  Solving for Uy, Initial residual = 0.244436, Final residual = 1.08043e-24, No Iterations 1
DILUPBiCGStab:  Solving for Uz, Initial residual = 7.50357e-08, Final residual = 4.91078e-31, No Iterations 1
DILUPBiCGStab:  Solving for O2, Initial residual = 1.59931e-09, Final residual = 2.00466e-34, No Iterations 1
DILUPBiCGStab:  Solving for H2, Initial residual = 1.78025e-10, Final residual = 1.1219e-33, No Iterations 1
DILUPBiCGStab:  Solving for H2O:  solution singularity
DILUPBiCGStab:  Solving for h, Initial residual = 1.05318e-07, Final residual = 2.00502e-30, No Iterations 1
min/max(T) = 300, 300.033
DICPCG:  Solving for p, Initial residual = 2.11893e-08, Final residual = 1.05632e-16, No Iterations 1
DICPCG:  Solving for p, Initial residual = 4.25307e-10, Final residual = 4.25307e-10, No Iterations 0
DICPCG:  Solving for p, Initial residual = 4.25307e-10, Final residual = 4.25307e-10, No Iterations 0
diagonal:  Solving for rho, Initial residual = 0, Final residual = 0, No Iterations 0
time step continuity errors : sum local = 1.29246e-16, global = -2.94484e-17, cumulative = 3.79688e-14
DICPCG:  Solving for p, Initial residual = 4.26285e-10, Final residual = 4.26285e-10, No Iterations 0
DICPCG:  Solving for p, Initial residual = 4.26285e-10, Final residual = 4.26285e-10, No Iterations 0
DICPCG:  Solving for p, Initial residual = 4.26285e-10, Final residual = 4.26285e-10, No Iterations 0
diagonal:  Solving for rho, Initial residual = 0, Final residual = 0, No Iterations 0
time step continuity errors : sum local = 1.29293e-16, global = -2.93977e-17, cumulative = 3.79394e-14
PIMPLE: iteration 2
DILUPBiCGStab:  Solving for Ux, Initial residual = 2.38093e-08, Final residual = 1.2539e-31, No Iterations 1
DILUPBiCGStab:  Solving for Uy, Initial residual = 0.0511162, Final residual = 2.26896e-25, No Iterations 1
DILUPBiCGStab:  Solving for Uz, Initial residual = 1.25086e-08, Final residual = 8.31824e-32, No Iterations 1
DILUPBiCGStab:  Solving for O2, Initial residual = 1.32515e-09, Final residual = 5.68475e-35, No Iterations 1
DILUPBiCGStab:  Solving for H2, Initial residual = 5.7002e-11, Final residual = 3.61039e-34, No Iterations 1
DILUPBiCGStab:  Solving for H2O:  solution singularity
DILUPBiCGStab:  Solving for h, Initial residual = 2.26763e-08, Final residual = 4.06846e-31, No Iterations 1
min/max(T) = 300, 300.023
DICPCG:  Solving for p, Initial residual = 8.39202e-09, Final residual = 8.39202e-09, No Iterations 0
DICPCG:  Solving for p, Initial residual = 8.39202e-09, Final residual = 8.39202e-09, No Iterations 0
DICPCG:  Solving for p, Initial residual = 8.39202e-09, Final residual = 8.39202e-09, No Iterations 0
diagonal:  Solving for rho, Initial residual = 0, Final residual = 0, No Iterations 0
time step continuity errors : sum local = 4.50101e-16, global = -3.35853e-16, cumulative = 3.76035e-14
DICPCG:  Solving for p, Initial residual = 8.39202e-09, Final residual = 8.39202e-09, No Iterations 0
DICPCG:  Solving for p, Initial residual = 8.39202e-09, Final residual = 8.39202e-09, No Iterations 0
DICPCG:  Solving for p, Initial residual = 8.39202e-09, Final residual = 8.39202e-09, No Iterations 0
diagonal:  Solving for rho, Initial residual = 0, Final residual = 0, No Iterations 0
time step continuity errors : sum local = 4.50101e-16, global = -3.35853e-16, cumulative = 3.72676e-14
PIMPLE: iteration 3
DILUPBiCGStab:  Solving for Ux, Initial residual = 6.12039e-09, Final residual = 3.22488e-32, No Iterations 1
DILUPBiCGStab:  Solving for Uy, Initial residual = 0.0136538, Final residual = 6.0604e-26, No Iterations 1
DILUPBiCGStab:  Solving for Uz, Initial residual = 3.21548e-09, Final residual = 2.13948e-32, No Iterations 1
DILUPBiCGStab:  Solving for O2, Initial residual = 3.90486e-09, Final residual = 1.87725e-32, No Iterations 1
DILUPBiCGStab:  Solving for H2, Initial residual = 1.5741e-11, Final residual = 9.9605e-35, No Iterations 1
DILUPBiCGStab:  Solving for H2O:  solution singularity
DILUPBiCGStab:  Solving for h, Initial residual = 9.72016e-09, Final residual = 1.74569e-31, No Iterations 1
min/max(T) = 300, 300.02
DICPCG:  Solving for p, Initial residual = 9.60468e-09, Final residual = 9.60468e-09, No Iterations 0
DICPCG:  Solving for p, Initial residual = 9.60468e-09, Final residual = 9.60468e-09, No Iterations 0
DICPCG:  Solving for p, Initial residual = 9.60468e-09, Final residual = 9.60468e-09, No Iterations 0
diagonal:  Solving for rho, Initial residual = 0, Final residual = 0, No Iterations 0
time step continuity errors : sum local = 5.30423e-16, global = -4.2463e-16, cumulative = 3.6843e-14
DICPCG:  Solving for p, Initial residual = 9.60468e-09, Final residual = 9.60468e-09, No Iterations 0
DICPCG:  Solving for p, Initial residual = 9.60468e-09, Final residual = 9.60468e-09, No Iterations 0
DICPCG:  Solving for p, Initial residual = 9.60468e-09, Final residual = 9.60468e-09, No Iterations 0
diagonal:  Solving for rho, Initial residual = 0, Final residual = 0, No Iterations 0
time step continuity errors : sum local = 5.30423e-16, global = -4.2463e-16, cumulative = 3.64184e-14
DILUPBiCGStab:  Solving for epsilon, Initial residual = 3.46619e-09, Final residual = 1.48679e-32, No Iterations 1
DILUPBiCGStab:  Solving for k, Initial residual = 0.000427724, Final residual = 3.88393e-30, No Iterations 1
PIMPLE: not converged within 3 iterations
ExecutionTime = 13.52 s  ClockTime = 17 s

Courant Number mean: 5.12738e-19 max: 4.01288e-08
deltaT = 1.728e-07
Time = 4.368e-07

diagonal:  Solving for rho, Initial residual = 0, Final residual = 0, No Iterations 0
PIMPLE: iteration 1
DILUPBiCGStab:  Solving for Ux, Initial residual = 7.8286e-08, Final residual = 8.478e-31, No Iterations 1
DILUPBiCGStab:  Solving for Uy, Initial residual = 0.150601, Final residual = 1.38031e-24, No Iterations 1
DILUPBiCGStab:  Solving for Uz, Initial residual = 4.11298e-08, Final residual = 5.62745e-31, No Iterations 1
DILUPBiCGStab:  Solving for O2, Initial residual = 1.66397e-09, Final residual = 5.72479e-34, No Iterations 1
DILUPBiCGStab:  Solving for H2, Initial residual = 2.35224e-10, Final residual = 3.06809e-33, No Iterations 1
DILUPBiCGStab:  Solving for H2O:  solution singularity
DILUPBiCGStab:  Solving for h, Initial residual = 2.01429e-08, Final residual = 6.85899e-31, No Iterations 1
min/max(T) = 300, 300.025
DICPCG:  Solving for p, Initial residual = 7.11147e-09, Final residual = 7.11147e-09, No Iterations 0
DICPCG:  Solving for p, Initial residual = 7.11147e-09, Final residual = 7.11147e-09, No Iterations 0
DICPCG:  Solving for p, Initial residual = 7.11147e-09, Final residual = 7.11147e-09, No Iterations 0
diagonal:  Solving for rho, Initial residual = 0, Final residual = 0, No Iterations 0
time step continuity errors : sum local = 3.12772e-16, global = 1.97926e-16, cumulative = 3.66163e-14
DICPCG:  Solving for p, Initial residual = 7.11298e-09, Final residual = 7.11298e-09, No Iterations 0
DICPCG:  Solving for p, Initial residual = 7.11298e-09, Final residual = 7.11298e-09, No Iterations 0
DICPCG:  Solving for p, Initial residual = 7.11298e-09, Final residual = 7.11298e-09, No Iterations 0
diagonal:  Solving for rho, Initial residual = 0, Final residual = 0, No Iterations 0
time step continuity errors : sum local = 3.12845e-16, global = 1.97999e-16, cumulative = 3.68143e-14
PIMPLE: iteration 2
DILUPBiCGStab:  Solving for Ux, Initial residual = 1.51767e-08, Final residual = 1.65045e-31, No Iterations 1
DILUPBiCGStab:  Solving for Uy, Initial residual = 0.033193, Final residual = 3.04992e-25, No Iterations 1
DILUPBiCGStab:  Solving for Uz, Initial residual = 7.97385e-09, Final residual = 1.09527e-31, No Iterations 1
DILUPBiCGStab:  Solving for O2, Initial residual = 3.18529e-09, Final residual = 2.65185e-32, No Iterations 1
DILUPBiCGStab:  Solving for H2, Initial residual = 7.64966e-11, Final residual = 1.00187e-33, No Iterations 1
DILUPBiCGStab:  Solving for H2O:  solution singularity
DILUPBiCGStab:  Solving for h, Initial residual = 1.13028e-08, Final residual = 3.85869e-31, No Iterations 1
min/max(T) = 300, 300.021
DICPCG:  Solving for p, Initial residual = 4.53157e-09, Final residual = 4.53157e-09, No Iterations 0
DICPCG:  Solving for p, Initial residual = 4.53157e-09, Final residual = 4.53157e-09, No Iterations 0
DICPCG:  Solving for p, Initial residual = 4.53157e-09, Final residual = 4.53157e-09, No Iterations 0
diagonal:  Solving for rho, Initial residual = 0, Final residual = 0, No Iterations 0
time step continuity errors : sum local = 1.72402e-16, global = 1.01674e-16, cumulative = 3.6916e-14
DICPCG:  Solving for p, Initial residual = 4.53157e-09, Final residual = 4.53157e-09, No Iterations 0
DICPCG:  Solving for p, Initial residual = 4.53157e-09, Final residual = 4.53157e-09, No Iterations 0
DICPCG:  Solving for p, Initial residual = 4.53157e-09, Final residual = 4.53157e-09, No Iterations 0
diagonal:  Solving for rho, Initial residual = 0, Final residual = 0, No Iterations 0
time step continuity errors : sum local = 1.72402e-16, global = 1.01674e-16, cumulative = 3.70177e-14
PIMPLE: iteration 3
DILUPBiCGStab:  Solving for Ux, Initial residual = 4.11515e-09, Final residual = 4.47834e-32, No Iterations 1
DILUPBiCGStab:  Solving for Uy, Initial residual = 0.00922127, Final residual = 8.47537e-26, No Iterations 1
DILUPBiCGStab:  Solving for Uz, Initial residual = 2.16212e-09, Final residual = 2.9719e-32, No Iterations 1
DILUPBiCGStab:  Solving for O2, Initial residual = 1.38735e-09, Final residual = 6.30796e-33, No Iterations 1
DILUPBiCGStab:  Solving for H2, Initial residual = 2.24681e-11, Final residual = 2.9436e-34, No Iterations 1
DILUPBiCGStab:  Solving for H2O:  solution singularity
DILUPBiCGStab:  Solving for h, Initial residual = 3.97496e-09, Final residual = 1.35356e-31, No Iterations 1
min/max(T) = 300, 300.02
DICPCG:  Solving for p, Initial residual = 3.94869e-09, Final residual = 3.94869e-09, No Iterations 0
DICPCG:  Solving for p, Initial residual = 3.94869e-09, Final residual = 3.94869e-09, No Iterations 0
DICPCG:  Solving for p, Initial residual = 3.94869e-09, Final residual = 3.94869e-09, No Iterations 0
diagonal:  Solving for rho, Initial residual = 0, Final residual = 0, No Iterations 0
time step continuity errors : sum local = 1.50414e-16, global = 7.16886e-17, cumulative = 3.70893e-14
DICPCG:  Solving for p, Initial residual = 3.94869e-09, Final residual = 3.94869e-09, No Iterations 0
DICPCG:  Solving for p, Initial residual = 3.94869e-09, Final residual = 3.94869e-09, No Iterations 0
DICPCG:  Solving for p, Initial residual = 3.94869e-09, Final residual = 3.94869e-09, No Iterations 0
diagonal:  Solving for rho, Initial residual = 0, Final residual = 0, No Iterations 0
time step continuity errors : sum local = 1.50414e-16, global = 7.16886e-17, cumulative = 3.7161e-14
DILUPBiCGStab:  Solving for epsilon, Initial residual = 4.07213e-09, Final residual = 3.60738e-32, No Iterations 1
DILUPBiCGStab:  Solving for k, Initial residual = 0.000233278, Final residual = 3.13979e-30, No Iterations 1
PIMPLE: not converged within 3 iterations
ExecutionTime = 18.79 s  ClockTime = 22 s

Courant Number mean: 8.89624e-19 max: 7.77163e-08
deltaT = 2.0736e-07
Time = 6.4416e-07

diagonal:  Solving for rho, Initial residual = 0, Final residual = 0, No Iterations 0
PIMPLE: iteration 1
DILUPBiCGStab:  Solving for Ux, Initial residual = 5.3338e-08, Final residual = 1.19577e-30, No Iterations 1
DILUPBiCGStab:  Solving for Uy, Initial residual = 0.107737, Final residual = 2.04639e-24, No Iterations 1
DILUPBiCGStab:  Solving for Uz, Initial residual = 2.80242e-08, Final residual = 7.93816e-31, No Iterations 1
DILUPBiCGStab:  Solving for O2, Initial residual = 1.69114e-09, Final residual = 1.3511e-33, No Iterations 1
DILUPBiCGStab:  Solving for H2, Initial residual = 2.80992e-10, Final residual = 7.60012e-33, No Iterations 1
DILUPBiCGStab:  Solving for H2O:  solution singularity
DILUPBiCGStab:  Solving for h, Initial residual = 1.04251e-10, Final residual = 2.91238e-33, No Iterations 1
min/max(T) = 300, 300.02
DICPCG:  Solving for p, Initial residual = 3.93619e-09, Final residual = 3.93619e-09, No Iterations 0
DICPCG:  Solving for p, Initial residual = 3.93619e-09, Final residual = 3.93619e-09, No Iterations 0
DICPCG:  Solving for p, Initial residual = 3.93619e-09, Final residual = 3.93619e-09, No Iterations 0
diagonal:  Solving for rho, Initial residual = 0, Final residual = 0, No Iterations 0
time step continuity errors : sum local = 1.43337e-16, global = 4.30259e-17, cumulative = 3.72041e-14
DICPCG:  Solving for p, Initial residual = 3.93837e-09, Final residual = 3.93837e-09, No Iterations 0
DICPCG:  Solving for p, Initial residual = 3.93837e-09, Final residual = 3.93837e-09, No Iterations 0
DICPCG:  Solving for p, Initial residual = 3.93837e-09, Final residual = 3.93837e-09, No Iterations 0
diagonal:  Solving for rho, Initial residual = 0, Final residual = 0, No Iterations 0
time step continuity errors : sum local = 1.43442e-16, global = 4.3131e-17, cumulative = 3.72472e-14
PIMPLE: iteration 2
DILUPBiCGStab:  Solving for Ux, Initial residual = 1.16536e-08, Final residual = 2.62516e-31, No Iterations 1
DILUPBiCGStab:  Solving for Uy, Initial residual = 0.0256835, Final residual = 4.89291e-25, No Iterations 1
DILUPBiCGStab:  Solving for Uz, Initial residual = 6.123e-09, Final residual = 1.7421e-31, No Iterations 1
DILUPBiCGStab:  Solving for O2, Initial residual = 1.42834e-09, Final residual = 1.66101e-32, No Iterations 1
DILUPBiCGStab:  Solving for H2, Initial residual = 9.17689e-11, Final residual = 2.49341e-33, No Iterations 1
DILUPBiCGStab:  Solving for H2O:  solution singularity
DILUPBiCGStab:  Solving for h, Initial residual = 7.55507e-11, Final residual = 2.72393e-33, No Iterations 1
min/max(T) = 300, 300.02
DICPCG:  Solving for p, Initial residual = 3.85023e-09, Final residual = 3.85023e-09, No Iterations 0
DICPCG:  Solving for p, Initial residual = 3.85023e-09, Final residual = 3.85023e-09, No Iterations 0
DICPCG:  Solving for p, Initial residual = 3.85023e-09, Final residual = 3.85023e-09, No Iterations 0
diagonal:  Solving for rho, Initial residual = 0, Final residual = 0, No Iterations 0
time step continuity errors : sum local = 1.28324e-16, global = 6.33869e-17, cumulative = 3.73106e-14
DICPCG:  Solving for p, Initial residual = 3.85023e-09, Final residual = 3.85023e-09, No Iterations 0
DICPCG:  Solving for p, Initial residual = 3.85023e-09, Final residual = 3.85023e-09, No Iterations 0
DICPCG:  Solving for p, Initial residual = 3.85023e-09, Final residual = 3.85023e-09, No Iterations 0
diagonal:  Solving for rho, Initial residual = 0, Final residual = 0, No Iterations 0
time step continuity errors : sum local = 1.28324e-16, global = 6.33869e-17, cumulative = 3.7374e-14
PIMPLE: iteration 3
DILUPBiCGStab:  Solving for Ux, Initial residual = 3.23265e-09, Final residual = 7.28832e-32, No Iterations 1
DILUPBiCGStab:  Solving for Uy, Initial residual = 0.007258, Final residual = 1.38321e-25, No Iterations 1
DILUPBiCGStab:  Solving for Uz, Initial residual = 1.6985e-09, Final residual = 4.83654e-32, No Iterations 1
DILUPBiCGStab:  Solving for O2, Initial residual = 8.77693e-10, Final residual = 7.99525e-33, No Iterations 1
DILUPBiCGStab:  Solving for H2, Initial residual = 2.75428e-11, Final residual = 7.48999e-34, No Iterations 1
DILUPBiCGStab:  Solving for H2O:  solution singularity
DILUPBiCGStab:  Solving for h, Initial residual = 4.22839e-11, Final residual = 1.26625e-33, No Iterations 1
min/max(T) = 300, 300.02
DICPCG:  Solving for p, Initial residual = 4.09897e-09, Final residual = 4.09897e-09, No Iterations 0
DICPCG:  Solving for p, Initial residual = 4.09897e-09, Final residual = 4.09897e-09, No Iterations 0
DICPCG:  Solving for p, Initial residual = 4.09897e-09, Final residual = 4.09897e-09, No Iterations 0
diagonal:  Solving for rho, Initial residual = 0, Final residual = 0, No Iterations 0
time step continuity errors : sum local = 1.46348e-16, global = 6.40933e-17, cumulative = 3.74381e-14
DICPCG:  Solving for p, Initial residual = 4.09897e-09, Final residual = 4.09897e-09, No Iterations 0
DICPCG:  Solving for p, Initial residual = 4.09897e-09, Final residual = 4.09897e-09, No Iterations 0
DICPCG:  Solving for p, Initial residual = 4.09897e-09, Final residual = 4.09897e-09, No Iterations 0
diagonal:  Solving for rho, Initial residual = 0, Final residual = 0, No Iterations 0
time step continuity errors : sum local = 1.46348e-16, global = 6.40933e-17, cumulative = 3.75022e-14
DILUPBiCGStab:  Solving for epsilon, Initial residual = 4.77056e-09, Final residual = 8.66988e-32, No Iterations 1
DILUPBiCGStab:  Solving for k, Initial residual = 0.000172961, Final residual = 2.02868e-30, No Iterations 1
PIMPLE: not converged within 3 iterations
ExecutionTime = 24.17 s  ClockTime = 27 s

Courant Number mean: 1.45478e-18 max: 1.34851e-07
deltaT = 2.48832e-07
Time = 8.92992e-07

diagonal:  Solving for rho, Initial residual = 0, Final residual = 0, No Iterations 0
PIMPLE: iteration 1
DILUPBiCGStab:  Solving for Ux, Initial residual = 4.21458e-08, Final residual = 1.96025e-30, No Iterations 1
DILUPBiCGStab:  Solving for Uy, Initial residual = 0.0870818, Final residual = 3.43173e-24, No Iterations 1
DILUPBiCGStab:  Solving for Uz, Initial residual = 2.21442e-08, Final residual = 1.3011e-30, No Iterations 1
DILUPBiCGStab:  Solving for O2, Initial residual = 1.81478e-09, Final residual = 3.32105e-33, No Iterations 1
DILUPBiCGStab:  Solving for H2, Initial residual = 3.4522e-10, Final residual = 1.93985e-32, No Iterations 1
DILUPBiCGStab:  Solving for H2O:  solution singularity
DILUPBiCGStab:  Solving for h, Initial residual = 1.155e-10, Final residual = 7.34363e-33, No Iterations 1
min/max(T) = 300, 300.02
DICPCG:  Solving for p, Initial residual = 3.97803e-09, Final residual = 3.97803e-09, No Iterations 0
DICPCG:  Solving for p, Initial residual = 3.97803e-09, Final residual = 3.97803e-09, No Iterations 0
DICPCG:  Solving for p, Initial residual = 3.97803e-09, Final residual = 3.97803e-09, No Iterations 0
diagonal:  Solving for rho, Initial residual = 0, Final residual = 0, No Iterations 0
time step continuity errors : sum local = 1.63447e-16, global = -1.5444e-17, cumulative = 3.74867e-14
DICPCG:  Solving for p, Initial residual = 3.98116e-09, Final residual = 3.98116e-09, No Iterations 0
DICPCG:  Solving for p, Initial residual = 3.98116e-09, Final residual = 3.98116e-09, No Iterations 0
DICPCG:  Solving for p, Initial residual = 3.98116e-09, Final residual = 3.98116e-09, No Iterations 0
diagonal:  Solving for rho, Initial residual = 0, Final residual = 0, No Iterations 0
time step continuity errors : sum local = 1.63599e-16, global = -1.52926e-17, cumulative = 3.74714e-14
PIMPLE: iteration 2
DILUPBiCGStab:  Solving for Ux, Initial residual = 9.76524e-09, Final residual = 4.56741e-31, No Iterations 1
DILUPBiCGStab:  Solving for Uy, Initial residual = 0.0216106, Final residual = 8.54593e-25, No Iterations 1
DILUPBiCGStab:  Solving for Uz, Initial residual = 5.1309e-09, Final residual = 3.03046e-31, No Iterations 1
DILUPBiCGStab:  Solving for O2, Initial residual = 1.67439e-09, Final residual = 4.65707e-32, No Iterations 1
DILUPBiCGStab:  Solving for H2, Initial residual = 1.14196e-10, Final residual = 6.45203e-33, No Iterations 1
DILUPBiCGStab:  Solving for H2O:  solution singularity
DILUPBiCGStab:  Solving for h, Initial residual = 8.77688e-11, Final residual = 7.21052e-33, No Iterations 1
min/max(T) = 300, 300.02
DICPCG:  Solving for p, Initial residual = 4.01041e-09, Final residual = 4.01041e-09, No Iterations 0
DICPCG:  Solving for p, Initial residual = 4.01041e-09, Final residual = 4.01041e-09, No Iterations 0
DICPCG:  Solving for p, Initial residual = 4.01041e-09, Final residual = 4.01041e-09, No Iterations 0
diagonal:  Solving for rho, Initial residual = 0, Final residual = 0, No Iterations 0
time step continuity errors : sum local = 1.46876e-16, global = 1.26229e-17, cumulative = 3.7484e-14
DICPCG:  Solving for p, Initial residual = 4.01041e-09, Final residual = 4.01041e-09, No Iterations 0
DICPCG:  Solving for p, Initial residual = 4.01041e-09, Final residual = 4.01041e-09, No Iterations 0
DICPCG:  Solving for p, Initial residual = 4.01041e-09, Final residual = 4.01041e-09, No Iterations 0
diagonal:  Solving for rho, Initial residual = 0, Final residual = 0, No Iterations 0
time step continuity errors : sum local = 1.46876e-16, global = 1.26229e-17, cumulative = 3.74967e-14
PIMPLE: iteration 3
DILUPBiCGStab:  Solving for Ux, Initial residual = 2.74235e-09, Final residual = 1.284e-31, No Iterations 1
DILUPBiCGStab:  Solving for Uy, Initial residual = 0.00616386, Final residual = 2.43839e-25, No Iterations 1
DILUPBiCGStab:  Solving for Uz, Initial residual = 1.44091e-09, Final residual = 8.51868e-32, No Iterations 1
DILUPBiCGStab:  Solving for O2, Initial residual = 9.93469e-10, Final residual = 2.15349e-32, No Iterations 1
DILUPBiCGStab:  Solving for H2, Initial residual = 3.42633e-11, Final residual = 1.93784e-33, No Iterations 1
DILUPBiCGStab:  Solving for H2O:  solution singularity
DILUPBiCGStab:  Solving for h, Initial residual = 4.8419e-11, Final residual = 3.32096e-33, No Iterations 1
min/max(T) = 300, 300.02
DICPCG:  Solving for p, Initial residual = 4.214e-09, Final residual = 4.214e-09, No Iterations 0
DICPCG:  Solving for p, Initial residual = 4.214e-09, Final residual = 4.214e-09, No Iterations 0
DICPCG:  Solving for p, Initial residual = 4.214e-09, Final residual = 4.214e-09, No Iterations 0
diagonal:  Solving for rho, Initial residual = 0, Final residual = 0, No Iterations 0
time step continuity errors : sum local = 1.6268e-16, global = 1.53215e-17, cumulative = 3.7512e-14
DICPCG:  Solving for p, Initial residual = 4.214e-09, Final residual = 4.214e-09, No Iterations 0
DICPCG:  Solving for p, Initial residual = 4.214e-09, Final residual = 4.214e-09, No Iterations 0
DICPCG:  Solving for p, Initial residual = 4.214e-09, Final residual = 4.214e-09, No Iterations 0
diagonal:  Solving for rho, Initial residual = 0, Final residual = 0, No Iterations 0
time step continuity errors : sum local = 1.6268e-16, global = 1.53215e-17, cumulative = 3.75273e-14
DILUPBiCGStab:  Solving for epsilon, Initial residual = 5.56648e-09, Final residual = 2.0774e-31, No Iterations 1
DILUPBiCGStab:  Solving for k, Initial residual = 0.000145054, Final residual = 2.58822e-30, No Iterations 1
PIMPLE: not converged within 3 iterations
ExecutionTime = 29.68 s  ClockTime = 33 s

Courant Number mean: 2.29947e-18 max: 2.2115e-07
deltaT = 2.98598e-07
Time = 1.19159e-06

diagonal:  Solving for rho, Initial residual = 0, Final residual = 0, No Iterations 0
PIMPLE: iteration 1
DILUPBiCGStab:  Solving for Ux, Initial residual = 3.58729e-08, Final residual = 3.46717e-30, No Iterations 1
DILUPBiCGStab:  Solving for Uy, Initial residual = 0.0750851, Final residual = 6.14333e-24, No Iterations 1
DILUPBiCGStab:  Solving for Uz, Initial residual = 1.88486e-08, Final residual = 2.3005e-30, No Iterations 1
DILUPBiCGStab:  Solving for O2, Initial residual = 1.62785e-09, Final residual = 7.89475e-33, No Iterations 1
DILUPBiCGStab:  Solving for H2, Initial residual = 4.2783e-10, Final residual = 5.00278e-32, No Iterations 1
DILUPBiCGStab:  Solving for H2O:  solution singularity
DILUPBiCGStab:  Solving for h, Initial residual = 1.16196e-10, Final residual = 1.85762e-32, No Iterations 1
min/max(T) = 300, 300.02
DICPCG:  Solving for p, Initial residual = 3.95893e-09, Final residual = 3.95893e-09, No Iterations 0
DICPCG:  Solving for p, Initial residual = 3.95893e-09, Final residual = 3.95893e-09, No Iterations 0
DICPCG:  Solving for p, Initial residual = 3.95893e-09, Final residual = 3.95893e-09, No Iterations 0
diagonal:  Solving for rho, Initial residual = 0, Final residual = 0, No Iterations 0
time step continuity errors : sum local = 1.61185e-16, global = 2.51318e-17, cumulative = 3.75524e-14
DICPCG:  Solving for p, Initial residual = 3.96344e-09, Final residual = 3.96344e-09, No Iterations 0
DICPCG:  Solving for p, Initial residual = 3.96344e-09, Final residual = 3.96344e-09, No Iterations 0
DICPCG:  Solving for p, Initial residual = 3.96344e-09, Final residual = 3.96344e-09, No Iterations 0
diagonal:  Solving for rho, Initial residual = 0, Final residual = 0, No Iterations 0
time step continuity errors : sum local = 1.61403e-16, global = 2.53498e-17, cumulative = 3.75778e-14
PIMPLE: iteration 2
DILUPBiCGStab:  Solving for Ux, Initial residual = 8.60355e-09, Final residual = 8.37047e-31, No Iterations 1
DILUPBiCGStab:  Solving for Uy, Initial residual = 0.019088, Final residual = 1.56812e-24, No Iterations 1
DILUPBiCGStab:  Solving for Uz, Initial residual = 4.52055e-09, Final residual = 5.5514e-31, No Iterations 1
DILUPBiCGStab:  Solving for O2, Initial residual = 1.55312e-09, Final residual = 1.23791e-31, No Iterations 1
DILUPBiCGStab:  Solving for H2, Initial residual = 1.4344e-10, Final residual = 1.68847e-32, No Iterations 1
DILUPBiCGStab:  Solving for H2O:  solution singularity
DILUPBiCGStab:  Solving for h, Initial residual = 8.74876e-11, Final residual = 1.89743e-32, No Iterations 1
min/max(T) = 300, 300.02
DICPCG:  Solving for p, Initial residual = 4.15243e-09, Final residual = 4.15243e-09, No Iterations 0
DICPCG:  Solving for p, Initial residual = 4.15243e-09, Final residual = 4.15243e-09, No Iterations 0
DICPCG:  Solving for p, Initial residual = 4.15243e-09, Final residual = 4.15243e-09, No Iterations 0
diagonal:  Solving for rho, Initial residual = 0, Final residual = 0, No Iterations 0
time step continuity errors : sum local = 1.50282e-16, global = 5.47613e-17, cumulative = 3.76325e-14
DICPCG:  Solving for p, Initial residual = 4.15243e-09, Final residual = 4.15243e-09, No Iterations 0
DICPCG:  Solving for p, Initial residual = 4.15243e-09, Final residual = 4.15243e-09, No Iterations 0
DICPCG:  Solving for p, Initial residual = 4.15243e-09, Final residual = 4.15243e-09, No Iterations 0
diagonal:  Solving for rho, Initial residual = 0, Final residual = 0, No Iterations 0
time step continuity errors : sum local = 1.50282e-16, global = 5.47613e-17, cumulative = 3.76873e-14
PIMPLE: iteration 3
DILUPBiCGStab:  Solving for Ux, Initial residual = 2.43467e-09, Final residual = 2.37161e-31, No Iterations 1
DILUPBiCGStab:  Solving for Uy, Initial residual = 0.00547599, Final residual = 4.50054e-25, No Iterations 1
DILUPBiCGStab:  Solving for Uz, Initial residual = 1.27926e-09, Final residual = 1.57274e-31, No Iterations 1
DILUPBiCGStab:  Solving for O2, Initial residual = 9.64972e-10, Final residual = 5.7141e-32, No Iterations 1
DILUPBiCGStab:  Solving for H2, Initial residual = 4.30204e-11, Final residual = 5.07008e-33, No Iterations 1
DILUPBiCGStab:  Solving for H2O:  solution singularity
DILUPBiCGStab:  Solving for h, Initial residual = 4.86263e-11, Final residual = 8.70688e-33, No Iterations 1
min/max(T) = 300, 300.02
DICPCG:  Solving for p, Initial residual = 4.30822e-09, Final residual = 4.30822e-09, No Iterations 0
DICPCG:  Solving for p, Initial residual = 4.30822e-09, Final residual = 4.30822e-09, No Iterations 0
DICPCG:  Solving for p, Initial residual = 4.30822e-09, Final residual = 4.30822e-09, No Iterations 0
diagonal:  Solving for rho, Initial residual = 0, Final residual = 0, No Iterations 0
time step continuity errors : sum local = 1.70343e-16, global = 5.70759e-17, cumulative = 3.77444e-14
DICPCG:  Solving for p, Initial residual = 4.30822e-09, Final residual = 4.30822e-09, No Iterations 0
DICPCG:  Solving for p, Initial residual = 4.30822e-09, Final residual = 4.30822e-09, No Iterations 0
DICPCG:  Solving for p, Initial residual = 4.30822e-09, Final residual = 4.30822e-09, No Iterations 0
diagonal:  Solving for rho, Initial residual = 0, Final residual = 0, No Iterations 0
time step continuity errors : sum local = 1.70343e-16, global = 5.70759e-17, cumulative = 3.78015e-14
DILUPBiCGStab:  Solving for epsilon, Initial residual = 6.46612e-09, Final residual = 4.95855e-31, No Iterations 1
DILUPBiCGStab:  Solving for k, Initial residual = 0.000130261, Final residual = 5.0858e-30, No Iterations 1
PIMPLE: not converged within 3 iterations
ExecutionTime = 35.27 s  ClockTime = 39 s

Courant Number mean: 3.55307e-18 max: 3.5042e-07
deltaT = 3.58318e-07
Time = 1.54991e-06

diagonal:  Solving for rho, Initial residual = 0, Final residual = 0, No Iterations 0
PIMPLE: iteration 1
DILUPBiCGStab:  Solving for Ux, Initial residual = 3.19145e-08, Final residual = 6.41856e-30, No Iterations 1
DILUPBiCGStab:  Solving for Uy, Initial residual = 0.0673521, Final residual = 1.14485e-23, No Iterations 1
DILUPBiCGStab:  Solving for Uz, Initial residual = 1.67689e-08, Final residual = 4.25652e-30, No Iterations 1
DILUPBiCGStab:  Solving for O2, Initial residual = 1.63307e-09, Final residual = 1.95654e-32, No Iterations 1
DILUPBiCGStab:  Solving for H2, Initial residual = 5.3341e-10, Final residual = 1.2999e-31, No Iterations 1
DILUPBiCGStab:  Solving for H2O:  solution singularity
DILUPBiCGStab:  Solving for h, Initial residual = 1.28236e-10, Final residual = 4.75804e-32, No Iterations 1
min/max(T) = 300, 300.02
DICPCG:  Solving for p, Initial residual = 4.75131e-09, Final residual = 4.75131e-09, No Iterations 0
DICPCG:  Solving for p, Initial residual = 4.75131e-09, Final residual = 4.75131e-09, No Iterations 0
DICPCG:  Solving for p, Initial residual = 4.75131e-09, Final residual = 4.75131e-09, No Iterations 0
diagonal:  Solving for rho, Initial residual = 0, Final residual = 0, No Iterations 0
time step continuity errors : sum local = 1.73256e-16, global = 5.43729e-17, cumulative = 3.78558e-14
DICPCG:  Solving for p, Initial residual = 4.75781e-09, Final residual = 4.75781e-09, No Iterations 0
DICPCG:  Solving for p, Initial residual = 4.75781e-09, Final residual = 4.75781e-09, No Iterations 0
DICPCG:  Solving for p, Initial residual = 4.75781e-09, Final residual = 4.75781e-09, No Iterations 0
diagonal:  Solving for rho, Initial residual = 0, Final residual = 0, No Iterations 0
time step continuity errors : sum local = 1.7357e-16, global = 5.46868e-17, cumulative = 3.79105e-14
PIMPLE: iteration 2
DILUPBiCGStab:  Solving for Ux, Initial residual = 7.82765e-09, Final residual = 1.58656e-30, No Iterations 1
DILUPBiCGStab:  Solving for Uy, Initial residual = 0.0173958, Final residual = 2.97116e-24, No Iterations 1
DILUPBiCGStab:  Solving for Uz, Initial residual = 4.1129e-09, Final residual = 1.05164e-30, No Iterations 1
DILUPBiCGStab:  Solving for O2, Initial residual = 1.65837e-09, Final residual = 3.39293e-31, No Iterations 1
DILUPBiCGStab:  Solving for H2, Initial residual = 1.81389e-10, Final residual = 4.45624e-32, No Iterations 1
DILUPBiCGStab:  Solving for H2O:  solution singularity
DILUPBiCGStab:  Solving for h, Initial residual = 9.74564e-11, Final residual = 5.08816e-32, No Iterations 1
min/max(T) = 300, 300.02
DICPCG:  Solving for p, Initial residual = 4.82215e-09, Final residual = 4.82215e-09, No Iterations 0
DICPCG:  Solving for p, Initial residual = 4.82215e-09, Final residual = 4.82215e-09, No Iterations 0
DICPCG:  Solving for p, Initial residual = 4.82215e-09, Final residual = 4.82215e-09, No Iterations 0
diagonal:  Solving for rho, Initial residual = 0, Final residual = 0, No Iterations 0
time step continuity errors : sum local = 1.67581e-16, global = 9.11294e-17, cumulative = 3.80017e-14
DICPCG:  Solving for p, Initial residual = 4.82215e-09, Final residual = 4.82215e-09, No Iterations 0
DICPCG:  Solving for p, Initial residual = 4.82215e-09, Final residual = 4.82215e-09, No Iterations 0
DICPCG:  Solving for p, Initial residual = 4.82215e-09, Final residual = 4.82215e-09, No Iterations 0
diagonal:  Solving for rho, Initial residual = 0, Final residual = 0, No Iterations 0
time step continuity errors : sum local = 1.67581e-16, global = 9.11294e-17, cumulative = 3.80928e-14
PIMPLE: iteration 3
DILUPBiCGStab:  Solving for Ux, Initial residual = 2.22656e-09, Final residual = 4.51956e-31, No Iterations 1
DILUPBiCGStab:  Solving for Uy, Initial residual = 0.00501011, Final residual = 8.56156e-25, No Iterations 1
DILUPBiCGStab:  Solving for Uz, Initial residual = 1.16992e-09, Final residual = 2.99532e-31, No Iterations 1
DILUPBiCGStab:  Solving for O2, Initial residual = 1.02284e-09, Final residual = 1.54109e-31, No Iterations 1
DILUPBiCGStab:  Solving for H2, Initial residual = 5.43734e-11, Final residual = 1.33769e-32, No Iterations 1
DILUPBiCGStab:  Solving for H2O:  solution singularity
DILUPBiCGStab:  Solving for h, Initial residual = 5.32004e-11, Final residual = 2.31943e-32, No Iterations 1
min/max(T) = 300, 300.02
DICPCG:  Solving for p, Initial residual = 5.18728e-09, Final residual = 5.18728e-09, No Iterations 0
DICPCG:  Solving for p, Initial residual = 5.18728e-09, Final residual = 5.18728e-09, No Iterations 0
DICPCG:  Solving for p, Initial residual = 5.18728e-09, Final residual = 5.18728e-09, No Iterations 0
diagonal:  Solving for rho, Initial residual = 0, Final residual = 0, No Iterations 0
time step continuity errors : sum local = 1.89478e-16, global = 9.33231e-17, cumulative = 3.81861e-14
DICPCG:  Solving for p, Initial residual = 5.18728e-09, Final residual = 5.18728e-09, No Iterations 0
DICPCG:  Solving for p, Initial residual = 5.18728e-09, Final residual = 5.18728e-09, No Iterations 0
DICPCG:  Solving for p, Initial residual = 5.18728e-09, Final residual = 5.18728e-09, No Iterations 0
diagonal:  Solving for rho, Initial residual = 0, Final residual = 0, No Iterations 0
time step continuity errors : sum local = 1.89478e-16, global = 9.33231e-17, cumulative = 3.82794e-14
DILUPBiCGStab:  Solving for epsilon, Initial residual = 7.47365e-09, Final residual = 1.17819e-30, No Iterations 1
DILUPBiCGStab:  Solving for k, Initial residual = 0.000122299, Final residual = 6.3925e-30, No Iterations 1
PIMPLE: not converged within 3 iterations
ExecutionTime = 40.69 s  ClockTime = 44 s

Courant Number mean: 5.40451e-18 max: 5.42652e-07
deltaT = 4.29982e-07
Time = 1.97989e-06

diagonal:  Solving for rho, Initial residual = 0, Final residual = 0, No Iterations 0
PIMPLE: iteration 1
DILUPBiCGStab:  Solving for Ux, Initial residual = 2.92269e-08, Final residual = 1.22447e-29, No Iterations 1
DILUPBiCGStab:  Solving for Uy, Initial residual = 0.0620278, Final residual = 2.19153e-23, No Iterations 1
DILUPBiCGStab:  Solving for Uz, Initial residual = 1.53568e-08, Final residual = 8.1147e-30, No Iterations 1
DILUPBiCGStab:  Solving for O2, Initial residual = 1.70804e-09, Final residual = 4.97043e-32, No Iterations 1
DILUPBiCGStab:  Solving for H2, Initial residual = 6.68549e-10, Final residual = 3.39997e-31, No Iterations 1
DILUPBiCGStab:  Solving for H2O:  solution singularity
DILUPBiCGStab:  Solving for h, Initial residual = 1.45333e-10, Final residual = 1.22834e-31, No Iterations 1
min/max(T) = 300, 300.02
DICPCG:  Solving for p, Initial residual = 4.81152e-09, Final residual = 4.81152e-09, No Iterations 0
DICPCG:  Solving for p, Initial residual = 4.81152e-09, Final residual = 4.81152e-09, No Iterations 0
DICPCG:  Solving for p, Initial residual = 4.81152e-09, Final residual = 4.81152e-09, No Iterations 0
diagonal:  Solving for rho, Initial residual = 0, Final residual = 0, No Iterations 0
time step continuity errors : sum local = 1.87242e-16, global = 5.50956e-17, cumulative = 3.83345e-14
DICPCG:  Solving for p, Initial residual = 4.82088e-09, Final residual = 4.82088e-09, No Iterations 0
DICPCG:  Solving for p, Initial residual = 4.82088e-09, Final residual = 4.82088e-09, No Iterations 0
DICPCG:  Solving for p, Initial residual = 4.82088e-09, Final residual = 4.82088e-09, No Iterations 0
diagonal:  Solving for rho, Initial residual = 0, Final residual = 0, No Iterations 0
time step continuity errors : sum local = 1.87694e-16, global = 5.55477e-17, cumulative = 3.83901e-14
PIMPLE: iteration 2
DILUPBiCGStab:  Solving for Ux, Initial residual = 7.28059e-09, Final residual = 3.07833e-30, No Iterations 1
DILUPBiCGStab:  Solving for Uy, Initial residual = 0.0161991, Final residual = 5.75553e-24, No Iterations 1
DILUPBiCGStab:  Solving for Uz, Initial residual = 3.82548e-09, Final residual = 2.03883e-30, No Iterations 1
DILUPBiCGStab:  Solving for O2, Initial residual = 1.7716e-09, Final residual = 9.27187e-31, No Iterations 1
DILUPBiCGStab:  Solving for H2, Initial residual = 2.30708e-10, Final residual = 1.18488e-31, No Iterations 1
DILUPBiCGStab:  Solving for H2O:  solution singularity
DILUPBiCGStab:  Solving for h, Initial residual = 1.08107e-10, Final residual = 1.37295e-31, No Iterations 1
min/max(T) = 300, 300.02
DICPCG:  Solving for p, Initial residual = 5.20688e-09, Final residual = 5.20688e-09, No Iterations 0
DICPCG:  Solving for p, Initial residual = 5.20688e-09, Final residual = 5.20688e-09, No Iterations 0
DICPCG:  Solving for p, Initial residual = 5.20688e-09, Final residual = 5.20688e-09, No Iterations 0
diagonal:  Solving for rho, Initial residual = 0, Final residual = 0, No Iterations 0
time step continuity errors : sum local = 1.92187e-16, global = 9.44686e-17, cumulative = 3.84845e-14
DICPCG:  Solving for p, Initial residual = 5.20688e-09, Final residual = 5.20688e-09, No Iterations 0
DICPCG:  Solving for p, Initial residual = 5.20688e-09, Final residual = 5.20688e-09, No Iterations 0
DICPCG:  Solving for p, Initial residual = 5.20688e-09, Final residual = 5.20688e-09, No Iterations 0
diagonal:  Solving for rho, Initial residual = 0, Final residual = 0, No Iterations 0
time step continuity errors : sum local = 1.92187e-16, global = 9.44686e-17, cumulative = 3.8579e-14
PIMPLE: iteration 3
DILUPBiCGStab:  Solving for Ux, Initial residual = 2.07856e-09, Final residual = 8.80366e-31, No Iterations 1
DILUPBiCGStab:  Solving for Uy, Initial residual = 0.00467849, Final residual = 1.66328e-24, No Iterations 1
DILUPBiCGStab:  Solving for Uz, Initial residual = 1.09216e-09, Final residual = 5.82997e-31, No Iterations 1
DILUPBiCGStab:  Solving for O2, Initial residual = 1.07846e-09, Final residual = 4.16454e-31, No Iterations 1
DILUPBiCGStab:  Solving for H2, Initial residual = 6.911e-11, Final residual = 3.5553e-32, No Iterations 1
DILUPBiCGStab:  Solving for H2O:  solution singularity
DILUPBiCGStab:  Solving for h, Initial residual = 5.80245e-11, Final residual = 6.22522e-32, No Iterations 1
min/max(T) = 300, 300.02
DICPCG:  Solving for p, Initial residual = 5.48986e-09, Final residual = 5.48986e-09, No Iterations 0
DICPCG:  Solving for p, Initial residual = 5.48986e-09, Final residual = 5.48986e-09, No Iterations 0
DICPCG:  Solving for p, Initial residual = 5.48986e-09, Final residual = 5.48986e-09, No Iterations 0
diagonal:  Solving for rho, Initial residual = 0, Final residual = 0, No Iterations 0
time step continuity errors : sum local = 2.13574e-16, global = 1.00782e-16, cumulative = 3.86798e-14
DICPCG:  Solving for p, Initial residual = 5.48986e-09, Final residual = 5.48986e-09, No Iterations 0
DICPCG:  Solving for p, Initial residual = 5.48986e-09, Final residual = 5.48986e-09, No Iterations 0
DICPCG:  Solving for p, Initial residual = 5.48986e-09, Final residual = 5.48986e-09, No Iterations 0
diagonal:  Solving for rho, Initial residual = 0, Final residual = 0, No Iterations 0
time step continuity errors : sum local = 2.13574e-16, global = 1.00782e-16, cumulative = 3.87806e-14
DILUPBiCGStab:  Solving for epsilon, Initial residual = 8.59056e-09, Final residual = 2.78529e-30, No Iterations 1
DILUPBiCGStab:  Solving for k, Initial residual = 0.000118567, Final residual = 1.31875e-29, No Iterations 1
PIMPLE: not converged within 3 iterations
ExecutionTime = 46.06 s  ClockTime = 49 s

Courant Number mean: 8.12565e-18 max: 8.2682e-07
deltaT = 5.15978e-07
Time = 2.49587e-06

diagonal:  Solving for rho, Initial residual = 0, Final residual = 0, No Iterations 0
PIMPLE: iteration 1
DILUPBiCGStab:  Solving for Ux, Initial residual = 2.73102e-08, Final residual = 2.38556e-29, No Iterations 1
DILUPBiCGStab:  Solving for Uy, Initial residual = 0.0581932, Final residual = 4.27481e-23, No Iterations 1
DILUPBiCGStab:  Solving for Uz, Initial residual = 1.43498e-08, Final residual = 1.57955e-29, No Iterations 1
DILUPBiCGStab:  Solving for O2, Initial residual = 1.72526e-09, Final residual = 1.27383e-31, No Iterations 1
DILUPBiCGStab:  Solving for H2, Initial residual = 8.41955e-10, Final residual = 8.94684e-31, No Iterations 1
DILUPBiCGStab:  Solving for H2O:  solution singularity
DILUPBiCGStab:  Solving for h, Initial residual = 1.64673e-10, Final residual = 3.1926e-31, No Iterations 1
min/max(T) = 300, 300.02
DICPCG:  Solving for p, Initial residual = 5.48905e-09, Final residual = 5.48905e-09, No Iterations 0
DICPCG:  Solving for p, Initial residual = 5.48905e-09, Final residual = 5.48905e-09, No Iterations 0
DICPCG:  Solving for p, Initial residual = 5.48905e-09, Final residual = 5.48905e-09, No Iterations 0
diagonal:  Solving for rho, Initial residual = 0, Final residual = 0, No Iterations 0
time step continuity errors : sum local = 2.20598e-16, global = 1.41995e-16, cumulative = 3.89226e-14
DICPCG:  Solving for p, Initial residual = 5.50253e-09, Final residual = 5.50253e-09, No Iterations 0
DICPCG:  Solving for p, Initial residual = 5.50253e-09, Final residual = 5.50253e-09, No Iterations 0
DICPCG:  Solving for p, Initial residual = 5.50253e-09, Final residual = 5.50253e-09, No Iterations 0
diagonal:  Solving for rho, Initial residual = 0, Final residual = 0, No Iterations 0
time step continuity errors : sum local = 2.21249e-16, global = 1.42646e-16, cumulative = 3.90652e-14
PIMPLE: iteration 2
DILUPBiCGStab:  Solving for Ux, Initial residual = 6.87999e-09, Final residual = 6.0749e-30, No Iterations 1
DILUPBiCGStab:  Solving for Uy, Initial residual = 0.0153207, Final residual = 1.13291e-23, No Iterations 1
DILUPBiCGStab:  Solving for Uz, Initial residual = 3.61501e-09, Final residual = 4.01974e-30, No Iterations 1
DILUPBiCGStab:  Solving for O2, Initial residual = 2.11745e-09, Final residual = 2.58308e-30, No Iterations 1
DILUPBiCGStab:  Solving for H2, Initial residual = 2.94914e-10, Final residual = 3.17151e-31, No Iterations 1
DILUPBiCGStab:  Solving for H2O:  solution singularity
DILUPBiCGStab:  Solving for h, Initial residual = 1.32677e-10, Final residual = 3.76251e-31, No Iterations 1
min/max(T) = 300, 300.02
DICPCG:  Solving for p, Initial residual = 5.97624e-09, Final residual = 5.97624e-09, No Iterations 0
DICPCG:  Solving for p, Initial residual = 5.97624e-09, Final residual = 5.97624e-09, No Iterations 0
DICPCG:  Solving for p, Initial residual = 5.97624e-09, Final residual = 5.97624e-09, No Iterations 0
diagonal:  Solving for rho, Initial residual = 0, Final residual = 0, No Iterations 0
time step continuity errors : sum local = 2.30312e-16, global = 1.91765e-16, cumulative = 3.9257e-14
DICPCG:  Solving for p, Initial residual = 5.97624e-09, Final residual = 5.97624e-09, No Iterations 0
DICPCG:  Solving for p, Initial residual = 5.97624e-09, Final residual = 5.97624e-09, No Iterations 0
DICPCG:  Solving for p, Initial residual = 5.97624e-09, Final residual = 5.97624e-09, No Iterations 0
diagonal:  Solving for rho, Initial residual = 0, Final residual = 0, No Iterations 0
time step continuity errors : sum local = 2.30312e-16, global = 1.91765e-16, cumulative = 3.94487e-14
PIMPLE: iteration 3
DILUPBiCGStab:  Solving for Ux, Initial residual = 1.96953e-09, Final residual = 1.74261e-30, No Iterations 1
DILUPBiCGStab:  Solving for Uy, Initial residual = 0.00443399, Final residual = 3.28112e-24, No Iterations 1
DILUPBiCGStab:  Solving for Uz, Initial residual = 1.03488e-09, Final residual = 1.15286e-30, No Iterations 1
DILUPBiCGStab:  Solving for O2, Initial residual = 1.2998e-09, Final residual = 1.14428e-30, No Iterations 1
DILUPBiCGStab:  Solving for H2, Initial residual = 8.82645e-11, Final residual = 9.51044e-32, No Iterations 1
DILUPBiCGStab:  Solving for H2O:  solution singularity
DILUPBiCGStab:  Solving for h, Initial residual = 7.14882e-11, Final residual = 1.69688e-31, No Iterations 1
min/max(T) = 300, 300.02
DICPCG:  Solving for p, Initial residual = 6.38024e-09, Final residual = 6.38024e-09, No Iterations 0
DICPCG:  Solving for p, Initial residual = 6.38024e-09, Final residual = 6.38024e-09, No Iterations 0
DICPCG:  Solving for p, Initial residual = 6.38024e-09, Final residual = 6.38024e-09, No Iterations 0
diagonal:  Solving for rho, Initial residual = 0, Final residual = 0, No Iterations 0
time step continuity errors : sum local = 2.57497e-16, global = 1.979e-16, cumulative = 3.96466e-14
DICPCG:  Solving for p, Initial residual = 6.38024e-09, Final residual = 6.38024e-09, No Iterations 0
DICPCG:  Solving for p, Initial residual = 6.38024e-09, Final residual = 6.38024e-09, No Iterations 0
DICPCG:  Solving for p, Initial residual = 6.38024e-09, Final residual = 6.38024e-09, No Iterations 0
diagonal:  Solving for rho, Initial residual = 0, Final residual = 0, No Iterations 0
time step continuity errors : sum local = 2.57497e-16, global = 1.979e-16, cumulative = 3.98445e-14
DILUPBiCGStab:  Solving for epsilon, Initial residual = 9.81501e-09, Final residual = 6.5483e-30, No Iterations 1
DILUPBiCGStab:  Solving for k, Initial residual = 0.000117844, Final residual = 1.99174e-29, No Iterations 1
PIMPLE: not converged within 3 iterations
ExecutionTime = 51.43 s  ClockTime = 55 s

Courant Number mean: 1.21111e-17 max: 1.24487e-06
deltaT = 6.19172e-07
Time = 3.11504e-06

diagonal:  Solving for rho, Initial residual = 0, Final residual = 0, No Iterations 0
PIMPLE: iteration 1
DILUPBiCGStab:  Solving for Ux, Initial residual = 2.5895e-08, Final residual = 4.71921e-29, No Iterations 1
DILUPBiCGStab:  Solving for Uy, Initial residual = 0.0553413, Final residual = 8.45418e-23, No Iterations 1
DILUPBiCGStab:  Solving for Uz, Initial residual = 1.36062e-08, Final residual = 3.12142e-29, No Iterations 1
DILUPBiCGStab:  Solving for O2, Initial residual = 1.5943e-09, Final residual = 3.28398e-31, No Iterations 1
DILUPBiCGStab:  Solving for H2, Initial residual = 1.06485e-09, Final residual = 2.36711e-30, No Iterations 1
DILUPBiCGStab:  Solving for H2O:  solution singularity
DILUPBiCGStab:  Solving for h, Initial residual = 1.81929e-10, Final residual = 8.35031e-31, No Iterations 1
min/max(T) = 300, 300.02
DICPCG:  Solving for p, Initial residual = 6.42653e-09, Final residual = 6.42653e-09, No Iterations 0
DICPCG:  Solving for p, Initial residual = 6.42653e-09, Final residual = 6.42653e-09, No Iterations 0
DICPCG:  Solving for p, Initial residual = 6.42653e-09, Final residual = 6.42653e-09, No Iterations 0
diagonal:  Solving for rho, Initial residual = 0, Final residual = 0, No Iterations 0
time step continuity errors : sum local = 2.46548e-16, global = 1.4081e-16, cumulative = 3.99854e-14
DICPCG:  Solving for p, Initial residual = 6.44593e-09, Final residual = 6.44593e-09, No Iterations 0
DICPCG:  Solving for p, Initial residual = 6.44593e-09, Final residual = 6.44593e-09, No Iterations 0
DICPCG:  Solving for p, Initial residual = 6.44593e-09, Final residual = 6.44593e-09, No Iterations 0
diagonal:  Solving for rho, Initial residual = 0, Final residual = 0, No Iterations 0
time step continuity errors : sum local = 2.47485e-16, global = 1.41747e-16, cumulative = 4.01271e-14
PIMPLE: iteration 2
DILUPBiCGStab:  Solving for Ux, Initial residual = 6.57849e-09, Final residual = 1.21417e-29, No Iterations 1
DILUPBiCGStab:  Solving for Uy, Initial residual = 0.0146584, Final residual = 2.25668e-23, No Iterations 1
DILUPBiCGStab:  Solving for Uz, Initial residual = 3.45661e-09, Final residual = 8.02506e-30, No Iterations 1
DILUPBiCGStab:  Solving for O2, Initial residual = 2.18095e-09, Final residual = 6.93285e-30, No Iterations 1
DILUPBiCGStab:  Solving for H2, Initial residual = 3.78531e-10, Final residual = 8.53734e-31, No Iterations 1
DILUPBiCGStab:  Solving for H2O:  solution singularity
DILUPBiCGStab:  Solving for h, Initial residual = 1.47348e-10, Final residual = 1.02608e-30, No Iterations 1
min/max(T) = 300, 300.02
DICPCG:  Solving for p, Initial residual = 7.03987e-09, Final residual = 7.03987e-09, No Iterations 0
DICPCG:  Solving for p, Initial residual = 7.03987e-09, Final residual = 7.03987e-09, No Iterations 0
DICPCG:  Solving for p, Initial residual = 7.03987e-09, Final residual = 7.03987e-09, No Iterations 0
diagonal:  Solving for rho, Initial residual = 0, Final residual = 0, No Iterations 0
time step continuity errors : sum local = 2.68617e-16, global = 2.02803e-16, cumulative = 4.03299e-14
DICPCG:  Solving for p, Initial residual = 7.03987e-09, Final residual = 7.03987e-09, No Iterations 0
DICPCG:  Solving for p, Initial residual = 7.03987e-09, Final residual = 7.03987e-09, No Iterations 0
DICPCG:  Solving for p, Initial residual = 7.03987e-09, Final residual = 7.03987e-09, No Iterations 0
diagonal:  Solving for rho, Initial residual = 0, Final residual = 0, No Iterations 0
time step continuity errors : sum local = 2.68617e-16, global = 2.02803e-16, cumulative = 4.05327e-14
PIMPLE: iteration 3
DILUPBiCGStab:  Solving for Ux, Initial residual = 1.88712e-09, Final residual = 3.49139e-30, No Iterations 1
DILUPBiCGStab:  Solving for Uy, Initial residual = 0.00424908, Final residual = 6.54704e-24, No Iterations 1
DILUPBiCGStab:  Solving for Uz, Initial residual = 9.9159e-10, Final residual = 2.3071e-30, No Iterations 1
DILUPBiCGStab:  Solving for O2, Initial residual = 1.36933e-09, Final residual = 3.09063e-30, No Iterations 1
DILUPBiCGStab:  Solving for H2, Initial residual = 1.13159e-10, Final residual = 2.55798e-31, No Iterations 1
DILUPBiCGStab:  Solving for H2O:  solution singularity
DILUPBiCGStab:  Solving for h, Initial residual = 7.89237e-11, Final residual = 4.61975e-31, No Iterations 1
min/max(T) = 300, 300.02
DICPCG:  Solving for p, Initial residual = 7.57994e-09, Final residual = 7.57994e-09, No Iterations 0
DICPCG:  Solving for p, Initial residual = 7.57994e-09, Final residual = 7.57994e-09, No Iterations 0
DICPCG:  Solving for p, Initial residual = 7.57994e-09, Final residual = 7.57994e-09, No Iterations 0
diagonal:  Solving for rho, Initial residual = 0, Final residual = 0, No Iterations 0
time step continuity errors : sum local = 2.99786e-16, global = 2.1281e-16, cumulative = 4.07455e-14
DICPCG:  Solving for p, Initial residual = 7.57994e-09, Final residual = 7.57994e-09, No Iterations 0
DICPCG:  Solving for p, Initial residual = 7.57994e-09, Final residual = 7.57994e-09, No Iterations 0
DICPCG:  Solving for p, Initial residual = 7.57994e-09, Final residual = 7.57994e-09, No Iterations 0
diagonal:  Solving for rho, Initial residual = 0, Final residual = 0, No Iterations 0
time step continuity errors : sum local = 2.99786e-16, global = 2.1281e-16, cumulative = 4.09583e-14
DILUPBiCGStab:  Solving for epsilon, Initial residual = 1.11414e-08, Final residual = 1.53063e-29, No Iterations 1
DILUPBiCGStab:  Solving for k, Initial residual = 0.000119537, Final residual = 3.68684e-29, No Iterations 1
PIMPLE: not converged within 3 iterations
ExecutionTime = 56.92 s  ClockTime = 60 s

Courant Number mean: 1.79319e-17 max: 1.85753e-06
deltaT = 7.43007e-07
Time = 3.85805e-06

diagonal:  Solving for rho, Initial residual = 0, Final residual = 0, No Iterations 0
PIMPLE: iteration 1
DILUPBiCGStab:  Solving for Ux, Initial residual = 2.48231e-08, Final residual = 9.44209e-29, No Iterations 1
DILUPBiCGStab:  Solving for Uy, Initial residual = 0.0531691, Final residual = 1.68913e-22, No Iterations 1
DILUPBiCGStab:  Solving for Uz, Initial residual = 1.3043e-08, Final residual = 6.23752e-29, No Iterations 1
DILUPBiCGStab:  Solving for O2, Initial residual = 1.65678e-09, Final residual = 8.6086e-31, No Iterations 1
DILUPBiCGStab:  Solving for H2, Initial residual = 1.35139e-09, Final residual = 6.29111e-30, No Iterations 1
DILUPBiCGStab:  Solving for H2O:  solution singularity
DILUPBiCGStab:  Solving for h, Initial residual = 2.15247e-10, Final residual = 2.20456e-30, No Iterations 1
min/max(T) = 300, 300.02
DICPCG:  Solving for p, Initial residual = 7.29919e-09, Final residual = 7.29919e-09, No Iterations 0
DICPCG:  Solving for p, Initial residual = 7.29919e-09, Final residual = 7.29919e-09, No Iterations 0
DICPCG:  Solving for p, Initial residual = 7.29919e-09, Final residual = 7.29919e-09, No Iterations 0
diagonal:  Solving for rho, Initial residual = 0, Final residual = 0, No Iterations 0
time step continuity errors : sum local = 2.9961e-16, global = 2.06167e-16, cumulative = 4.11645e-14
DICPCG:  Solving for p, Initial residual = 7.32713e-09, Final residual = 7.32713e-09, No Iterations 0
DICPCG:  Solving for p, Initial residual = 7.32713e-09, Final residual = 7.32713e-09, No Iterations 0
DICPCG:  Solving for p, Initial residual = 7.32713e-09, Final residual = 7.32713e-09, No Iterations 0
diagonal:  Solving for rho, Initial residual = 0, Final residual = 0, No Iterations 0
time step continuity errors : sum local = 3.00959e-16, global = 2.07517e-16, cumulative = 4.1372e-14
PIMPLE: iteration 2
DILUPBiCGStab:  Solving for Ux, Initial residual = 6.34688e-09, Final residual = 2.45022e-29, No Iterations 1
DILUPBiCGStab:  Solving for Uy, Initial residual = 0.0141488, Final residual = 4.53573e-23, No Iterations 1
DILUPBiCGStab:  Solving for Uz, Initial residual = 3.33494e-09, Final residual = 1.61731e-29, No Iterations 1
DILUPBiCGStab:  Solving for O2, Initial residual = 2.56202e-09, Final residual = 1.89882e-29, No Iterations 1
DILUPBiCGStab:  Solving for H2, Initial residual = 4.87221e-10, Final residual = 2.30809e-30, No Iterations 1
DILUPBiCGStab:  Solving for H2O:  solution singularity
DILUPBiCGStab:  Solving for h, Initial residual = 1.79441e-10, Final residual = 2.83252e-30, No Iterations 1
min/max(T) = 300, 300.02
DICPCG:  Solving for p, Initial residual = 8.33256e-09, Final residual = 8.33256e-09, No Iterations 0
DICPCG:  Solving for p, Initial residual = 8.33256e-09, Final residual = 8.33256e-09, No Iterations 0
DICPCG:  Solving for p, Initial residual = 8.33256e-09, Final residual = 8.33256e-09, No Iterations 0
diagonal:  Solving for rho, Initial residual = 0, Final residual = 0, No Iterations 0
time step continuity errors : sum local = 3.40648e-16, global = 2.81725e-16, cumulative = 4.16537e-14
DICPCG:  Solving for p, Initial residual = 8.33256e-09, Final residual = 8.33256e-09, No Iterations 0
DICPCG:  Solving for p, Initial residual = 8.33256e-09, Final residual = 8.33256e-09, No Iterations 0
DICPCG:  Solving for p, Initial residual = 8.33256e-09, Final residual = 8.33256e-09, No Iterations 0
diagonal:  Solving for rho, Initial residual = 0, Final residual = 0, No Iterations 0
time step continuity errors : sum local = 3.40648e-16, global = 2.81725e-16, cumulative = 4.19355e-14
PIMPLE: iteration 3
DILUPBiCGStab:  Solving for Ux, Initial residual = 1.82366e-09, Final residual = 7.06008e-30, No Iterations 1
DILUPBiCGStab:  Solving for Uy, Initial residual = 0.00410654, Final residual = 1.31773e-23, No Iterations 1
DILUPBiCGStab:  Solving for Uz, Initial residual = 9.58253e-10, Final residual = 4.65894e-30, No Iterations 1
DILUPBiCGStab:  Solving for O2, Initial residual = 1.58181e-09, Final residual = 8.40848e-30, No Iterations 1
DILUPBiCGStab:  Solving for H2, Initial residual = 1.45432e-10, Final residual = 6.90772e-31, No Iterations 1
DILUPBiCGStab:  Solving for H2O:  solution singularity
DILUPBiCGStab:  Solving for h, Initial residual = 9.47576e-11, Final residual = 1.27217e-30, No Iterations 1
min/max(T) = 300, 300.02
DICPCG:  Solving for p, Initial residual = 8.93955e-09, Final residual = 8.93955e-09, No Iterations 0
DICPCG:  Solving for p, Initial residual = 8.93955e-09, Final residual = 8.93955e-09, No Iterations 0
DICPCG:  Solving for p, Initial residual = 8.93955e-09, Final residual = 8.93955e-09, No Iterations 0
diagonal:  Solving for rho, Initial residual = 0, Final residual = 0, No Iterations 0
time step continuity errors : sum local = 3.74455e-16, global = 2.97876e-16, cumulative = 4.22333e-14
DICPCG:  Solving for p, Initial residual = 8.93955e-09, Final residual = 8.93955e-09, No Iterations 0
DICPCG:  Solving for p, Initial residual = 8.93955e-09, Final residual = 8.93955e-09, No Iterations 0
DICPCG:  Solving for p, Initial residual = 8.93955e-09, Final residual = 8.93955e-09, No Iterations 0
diagonal:  Solving for rho, Initial residual = 0, Final residual = 0, No Iterations 0
time step continuity errors : sum local = 3.74455e-16, global = 2.97876e-16, cumulative = 4.25312e-14
DILUPBiCGStab:  Solving for epsilon, Initial residual = 1.25601e-08, Final residual = 3.55645e-29, No Iterations 1
DILUPBiCGStab:  Solving for k, Initial residual = 0.00012338, Final residual = 6.88671e-29, No Iterations 1
PIMPLE: not converged within 3 iterations
ExecutionTime = 62.17 s  ClockTime = 66 s

Courant Number mean: 2.64115e-17 max: 2.75257e-06
deltaT = 8.91613e-07
Time = 4.74966e-06

diagonal:  Solving for rho, Initial residual = 0, Final residual = 0, No Iterations 0
PIMPLE: iteration 1
DILUPBiCGStab:  Solving for Ux, Initial residual = 2.39954e-08, Final residual = 1.90508e-28, No Iterations 1
DILUPBiCGStab:  Solving for Uy, Initial residual = 0.0514842, Final residual = 3.40063e-22, No Iterations 1
DILUPBiCGStab:  Solving for Uz, Initial residual = 1.26082e-08, Final residual = 1.25671e-28, No Iterations 1
DILUPBiCGStab:  Solving for O2, Initial residual = 1.71452e-09, Final residual = 2.26536e-30, No Iterations 1
DILUPBiCGStab:  Solving for H2, Initial residual = 1.71885e-09, Final residual = 1.67731e-29, No Iterations 1
DILUPBiCGStab:  Solving for H2O:  solution singularity
DILUPBiCGStab:  Solving for h, Initial residual = 2.59022e-10, Final residual = 5.86444e-30, No Iterations 1
min/max(T) = 300, 300.02
DICPCG:  Solving for p, Initial residual = 8.38977e-09, Final residual = 8.38977e-09, No Iterations 0
DICPCG:  Solving for p, Initial residual = 8.38977e-09, Final residual = 8.38977e-09, No Iterations 0
DICPCG:  Solving for p, Initial residual = 8.38977e-09, Final residual = 8.38977e-09, No Iterations 0
diagonal:  Solving for rho, Initial residual = 0, Final residual = 0, No Iterations 0
time step continuity errors : sum local = 3.65754e-16, global = 1.9922e-16, cumulative = 4.27304e-14
DICPCG:  Solving for p, Initial residual = 8.42999e-09, Final residual = 8.42999e-09, No Iterations 0
DICPCG:  Solving for p, Initial residual = 8.42999e-09, Final residual = 8.42999e-09, No Iterations 0
DICPCG:  Solving for p, Initial residual = 8.42999e-09, Final residual = 8.42999e-09, No Iterations 0
diagonal:  Solving for rho, Initial residual = 0, Final residual = 0, No Iterations 0
time step continuity errors : sum local = 3.67697e-16, global = 2.01163e-16, cumulative = 4.29316e-14
PIMPLE: iteration 2
DILUPBiCGStab:  Solving for Ux, Initial residual = 6.16621e-09, Final residual = 4.98068e-29, No Iterations 1
DILUPBiCGStab:  Solving for Uy, Initial residual = 0.0137506, Final residual = 9.17817e-23, No Iterations 1
DILUPBiCGStab:  Solving for Uz, Initial residual = 3.24005e-09, Final residual = 3.28264e-29, No Iterations 1
DILUPBiCGStab:  Solving for O2, Initial residual = 3.04225e-09, Final residual = 5.16571e-29, No Iterations 1
DILUPBiCGStab:  Solving for H2, Initial residual = 6.27794e-10, Final residual = 6.25546e-30, No Iterations 1
DILUPBiCGStab:  Solving for H2O:  solution singularity
DILUPBiCGStab:  Solving for h, Initial residual = 2.24605e-10, Final residual = 7.85728e-30, No Iterations 1
min/max(T) = 300, 300.02
DICPCG:  Solving for p, Initial residual = 9.92419e-09, Final residual = 9.92419e-09, No Iterations 0
DICPCG:  Solving for p, Initial residual = 9.92419e-09, Final residual = 9.92419e-09, No Iterations 0
DICPCG:  Solving for p, Initial residual = 9.92419e-09, Final residual = 9.92419e-09, No Iterations 0
diagonal:  Solving for rho, Initial residual = 0, Final residual = 0, No Iterations 0
time step continuity errors : sum local = 4.2461e-16, global = 3.03802e-16, cumulative = 4.32354e-14
DICPCG:  Solving for p, Initial residual = 9.92419e-09, Final residual = 9.92419e-09, No Iterations 0
DICPCG:  Solving for p, Initial residual = 9.92419e-09, Final residual = 9.92419e-09, No Iterations 0
DICPCG:  Solving for p, Initial residual = 9.92419e-09, Final residual = 9.92419e-09, No Iterations 0
diagonal:  Solving for rho, Initial residual = 0, Final residual = 0, No Iterations 0
time step continuity errors : sum local = 4.2461e-16, global = 3.03802e-16, cumulative = 4.35392e-14
PIMPLE: iteration 3
DILUPBiCGStab:  Solving for Ux, Initial residual = 1.77409e-09, Final residual = 1.43769e-29, No Iterations 1
DILUPBiCGStab:  Solving for Uy, Initial residual = 0.00399512, Final residual = 2.66964e-23, No Iterations 1
DILUPBiCGStab:  Solving for Uz, Initial residual = 9.3222e-10, Final residual = 9.47279e-30, No Iterations 1
DILUPBiCGStab:  Solving for O2, Initial residual = 1.88409e-09, Final residual = 2.28099e-29, No Iterations 1
DILUPBiCGStab:  Solving for H2, Initial residual = 1.87028e-10, Final residual = 1.86932e-30, No Iterations 1
DILUPBiCGStab:  Solving for H2O:  solution singularity
DILUPBiCGStab:  Solving for h, Initial residual = 1.18065e-10, Final residual = 3.5267e-30, No Iterations 1
min/max(T) = 300, 300.02
DICPCG:  Solving for p, Initial residual = 1.05915e-08, Final residual = 7.12919e-14, No Iterations 1
DICPCG:  Solving for p, Initial residual = 3.61961e-10, Final residual = 3.61961e-10, No Iterations 0
DICPCG:  Solving for p, Initial residual = 3.61961e-10, Final residual = 3.61961e-10, No Iterations 0
diagonal:  Solving for rho, Initial residual = 0, Final residual = 0, No Iterations 0
time step continuity errors : sum local = 1.1765e-16, global = -3.69404e-17, cumulative = 4.35023e-14
DICPCG:  Solving for p, Initial residual = 3.61961e-10, Final residual = 3.61961e-10, No Iterations 0
DICPCG:  Solving for p, Initial residual = 3.61961e-10, Final residual = 3.61961e-10, No Iterations 0
DICPCG:  Solving for p, Initial residual = 3.61961e-10, Final residual = 3.61961e-10, No Iterations 0
diagonal:  Solving for rho, Initial residual = 0, Final residual = 0, No Iterations 0
time step continuity errors : sum local = 1.1765e-16, global = -3.69401e-17, cumulative = 4.34653e-14
DILUPBiCGStab:  Solving for epsilon, Initial residual = 1.40598e-08, Final residual = 8.2728e-29, No Iterations 1
DILUPBiCGStab:  Solving for k, Initial residual = 0.000129306, Final residual = 1.29339e-28, No Iterations 1
PIMPLE: not converged within 3 iterations
ExecutionTime = 67.49 s  ClockTime = 71 s

Courant Number mean: 4.01481e-17 max: 4.13096e-06
deltaT = 1.06994e-06
Time = 5.8196e-06

diagonal:  Solving for rho, Initial residual = 0, Final residual = 0, No Iterations 0
PIMPLE: iteration 1
DILUPBiCGStab:  Solving for Ux, Initial residual = 2.53135e-08, Final residual = 4.2467e-28, No Iterations 1
DILUPBiCGStab:  Solving for Uy, Initial residual = 0.0588227, Final residual = 9.44965e-22, No Iterations 1
DILUPBiCGStab:  Solving for Uz, Initial residual = 1.38079e-08, Final residual = 4.64984e-28, No Iterations 1
DILUPBiCGStab:  Solving for O2, Initial residual = 1.65728e-09, Final residual = 5.99658e-30, No Iterations 1
DILUPBiCGStab:  Solving for H2, Initial residual = 2.18746e-09, Final residual = 4.50972e-29, No Iterations 1
DILUPBiCGStab:  Solving for H2O:  solution singularity
DILUPBiCGStab:  Solving for h, Initial residual = 1.21831e-08, Final residual = 8.51023e-28, No Iterations 1
min/max(T) = 300, 300.023
DICPCG:  Solving for p, Initial residual = 1.11753e-08, Final residual = 1.5533e-13, No Iterations 1
DICPCG:  Solving for p, Initial residual = 3.67288e-10, Final residual = 3.67288e-10, No Iterations 0
DICPCG:  Solving for p, Initial residual = 3.67288e-10, Final residual = 3.67288e-10, No Iterations 0
diagonal:  Solving for rho, Initial residual = 0, Final residual = 0, No Iterations 0
time step continuity errors : sum local = 1.37639e-16, global = 2.14389e-17, cumulative = 4.34868e-14
DICPCG:  Solving for p, Initial residual = 4.13069e-10, Final residual = 4.13069e-10, No Iterations 0
DICPCG:  Solving for p, Initial residual = 4.13069e-10, Final residual = 4.13069e-10, No Iterations 0
DICPCG:  Solving for p, Initial residual = 4.13069e-10, Final residual = 4.13069e-10, No Iterations 0
diagonal:  Solving for rho, Initial residual = 0, Final residual = 0, No Iterations 0
time step continuity errors : sum local = 1.40362e-16, global = 2.42383e-17, cumulative = 4.3511e-14
PIMPLE: iteration 2
DILUPBiCGStab:  Solving for Ux, Initial residual = 7.02507e-09, Final residual = 1.2424e-28, No Iterations 1
DILUPBiCGStab:  Solving for Uy, Initial residual = 0.0213984, Final residual = 4.31811e-22, No Iterations 1
DILUPBiCGStab:  Solving for Uz, Initial residual = 4.01556e-09, Final residual = 2.02656e-28, No Iterations 1
DILUPBiCGStab:  Solving for O2, Initial residual = 1.20361e-09, Final residual = 1.98682e-30, No Iterations 1
DILUPBiCGStab:  Solving for H2, Initial residual = 8.06777e-10, Final residual = 1.72551e-29, No Iterations 1
DILUPBiCGStab:  Solving for H2O:  solution singularity
DILUPBiCGStab:  Solving for h, Initial residual = 5.73255e-09, Final residual = 4.08257e-28, No Iterations 1
min/max(T) = 300, 300.023
DICPCG:  Solving for p, Initial residual = 4.11118e-09, Final residual = 4.11118e-09, No Iterations 0
DICPCG:  Solving for p, Initial residual = 4.11118e-09, Final residual = 4.11118e-09, No Iterations 0
DICPCG:  Solving for p, Initial residual = 4.11118e-09, Final residual = 4.11118e-09, No Iterations 0
diagonal:  Solving for rho, Initial residual = 0, Final residual = 0, No Iterations 0
time step continuity errors : sum local = 3.00274e-16, global = 1.67016e-16, cumulative = 4.3678e-14
DICPCG:  Solving for p, Initial residual = 4.11118e-09, Final residual = 4.11118e-09, No Iterations 0
DICPCG:  Solving for p, Initial residual = 4.11118e-09, Final residual = 4.11118e-09, No Iterations 0
DICPCG:  Solving for p, Initial residual = 4.11118e-09, Final residual = 4.11118e-09, No Iterations 0
diagonal:  Solving for rho, Initial residual = 0, Final residual = 0, No Iterations 0
time step continuity errors : sum local = 3.00274e-16, global = 1.67016e-16, cumulative = 4.3845e-14
PIMPLE: iteration 3
DILUPBiCGStab:  Solving for Ux, Initial residual = 2.00689e-09, Final residual = 3.56496e-29, No Iterations 1
DILUPBiCGStab:  Solving for Uy, Initial residual = 0.00649879, Final residual = 1.31277e-22, No Iterations 1
DILUPBiCGStab:  Solving for Uz, Initial residual = 1.14609e-09, Final residual = 5.79331e-29, No Iterations 1
DILUPBiCGStab:  Solving for O2, Initial residual = 1.91926e-09, Final residual = 4.05768e-29, No Iterations 1
DILUPBiCGStab:  Solving for H2, Initial residual = 2.39854e-10, Final residual = 5.15295e-30, No Iterations 1
DILUPBiCGStab:  Solving for H2O:  solution singularity
DILUPBiCGStab:  Solving for h, Initial residual = 1.72972e-09, Final residual = 1.21798e-28, No Iterations 1
min/max(T) = 300, 300.024
DICPCG:  Solving for p, Initial residual = 4.50959e-09, Final residual = 4.50959e-09, No Iterations 0
DICPCG:  Solving for p, Initial residual = 4.50959e-09, Final residual = 4.50959e-09, No Iterations 0
DICPCG:  Solving for p, Initial residual = 4.50959e-09, Final residual = 4.50959e-09, No Iterations 0
diagonal:  Solving for rho, Initial residual = 0, Final residual = 0, No Iterations 0
time step continuity errors : sum local = 3.32231e-16, global = 2.12444e-16, cumulative = 4.40575e-14
DICPCG:  Solving for p, Initial residual = 4.50959e-09, Final residual = 4.50959e-09, No Iterations 0
DICPCG:  Solving for p, Initial residual = 4.50959e-09, Final residual = 4.50959e-09, No Iterations 0
DICPCG:  Solving for p, Initial residual = 4.50959e-09, Final residual = 4.50959e-09, No Iterations 0
diagonal:  Solving for rho, Initial residual = 0, Final residual = 0, No Iterations 0
time step continuity errors : sum local = 3.32231e-16, global = 2.12444e-16, cumulative = 4.42699e-14
DILUPBiCGStab:  Solving for epsilon, Initial residual = 1.56187e-08, Final residual = 1.92348e-28, No Iterations 1
DILUPBiCGStab:  Solving for k, Initial residual = 0.000137371, Final residual = 2.42148e-28, No Iterations 1
PIMPLE: not converged within 3 iterations
ExecutionTime = 72.93 s  ClockTime = 76 s

Courant Number mean: 6.19775e-17 max: 6.28358e-06
deltaT = 1.28392e-06
Time = 7.10352e-06

diagonal:  Solving for rho, Initial residual = 0, Final residual = 0, No Iterations 0
PIMPLE: iteration 1
DILUPBiCGStab:  Solving for Ux, Initial residual = 2.63594e-08, Final residual = 9.51459e-28, No Iterations 1
DILUPBiCGStab:  Solving for Uy, Initial residual = 0.080153, Final residual = 3.29719e-21, No Iterations 1
DILUPBiCGStab:  Solving for Uz, Initial residual = 1.50494e-08, Final residual = 1.52415e-27, No Iterations 1
DILUPBiCGStab:  Solving for O2, Initial residual = 1.67658e-09, Final residual = 1.66787e-29, No Iterations 1
DILUPBiCGStab:  Solving for H2, Initial residual = 2.77926e-09, Final residual = 1.21824e-28, No Iterations 1
DILUPBiCGStab:  Solving for H2O:  solution singularity
DILUPBiCGStab:  Solving for h, Initial residual = 1.22276e-08, Final residual = 2.03585e-27, No Iterations 1
min/max(T) = 300, 300.026
DICPCG:  Solving for p, Initial residual = 1.20368e-08, Final residual = 3.60499e-13, No Iterations 1
DICPCG:  Solving for p, Initial residual = 3.2133e-10, Final residual = 3.2133e-10, No Iterations 0
DICPCG:  Solving for p, Initial residual = 3.2133e-10, Final residual = 3.2133e-10, No Iterations 0
diagonal:  Solving for rho, Initial residual = 0, Final residual = 0, No Iterations 0
time step continuity errors : sum local = 1.29352e-16, global = 1.80861e-17, cumulative = 4.4288e-14
DICPCG:  Solving for p, Initial residual = 3.79284e-10, Final residual = 3.79284e-10, No Iterations 0
DICPCG:  Solving for p, Initial residual = 3.79284e-10, Final residual = 3.79284e-10, No Iterations 0
DICPCG:  Solving for p, Initial residual = 3.79284e-10, Final residual = 3.79284e-10, No Iterations 0
diagonal:  Solving for rho, Initial residual = 0, Final residual = 0, No Iterations 0
time step continuity errors : sum local = 1.33242e-16, global = 2.21175e-17, cumulative = 4.43101e-14
PIMPLE: iteration 2
[...]
DILUPBiCGStab:  Solving for Uz, Initial residual = 6.89808e-09, Final residual = 2.79488e-15, No Iterations 1
DILUPBiCGStab:  Solving for O2, Initial residual = 2.79041e-10, Final residual = 5.34031e-18, No Iterations 1
DILUPBiCGStab:  Solving for H2, Initial residual = 2.62293e-10, Final residual = 1.818e-19, No Iterations 1
DILUPBiCGStab:  Solving for H2O:  solution singularity
DILUPBiCGStab:  Solving for h, Initial residual = 1.78504e-08, Final residual = 2.44605e-15, No Iterations 1
min/max(T) = 290.736, 300.212
DICPCG:  Solving for p, Initial residual = 1.00611e-07, Final residual = 3.30313e-09, No Iterations 2
DICPCG:  Solving for p, Initial residual = 3.61739e-09, Final residual = 3.61739e-09, No Iterations 0
DICPCG:  Solving for p, Initial residual = 3.61739e-09, Final residual = 3.61739e-09, No Iterations 0
diagonal:  Solving for rho, Initial residual = 0, Final residual = 0, No Iterations 0
time step continuity errors : sum local = 8.86772e-14, global = 2.31409e-14, cumulative = 8.12882e-12
DICPCG:  Solving for p, Initial residual = 3.62732e-09, Final residual = 3.62732e-09, No Iterations 0
DICPCG:  Solving for p, Initial residual = 3.62732e-09, Final residual = 3.62732e-09, No Iterations 0
DICPCG:  Solving for p, Initial residual = 3.62732e-09, Final residual = 3.62732e-09, No Iterations 0
diagonal:  Solving for rho, Initial residual = 0, Final residual = 0, No Iterations 0
time step continuity errors : sum local = 8.89203e-14, global = 2.34315e-14, cumulative = 8.15225e-12
PIMPLE: iteration 2
DILUPBiCGStab:  Solving for Ux, Initial residual = 1.86877e-08, Final residual = 1.54324e-15, No Iterations 1
DILUPBiCGStab:  Solving for Uy, Initial residual = 1.2827e-06, Final residual = 1.00709e-13, No Iterations 1
DILUPBiCGStab:  Solving for Uz, Initial residual = 2.10381e-09, Final residual = 1.08563e-15, No Iterations 1
DILUPBiCGStab:  Solving for O2, Initial residual = 3.03818e-10, Final residual = 4.31458e-17, No Iterations 1
DILUPBiCGStab:  Solving for H2, Initial residual = 8.84843e-11, Final residual = 6.37036e-20, No Iterations 1
DILUPBiCGStab:  Solving for H2O:  solution singularity
DILUPBiCGStab:  Solving for h, Initial residual = 5.27589e-09, Final residual = 9.31161e-16, No Iterations 1
min/max(T) = 290.505, 300.213
DICPCG:  Solving for p, Initial residual = 1.24599e-08, Final residual = 3.76203e-09, No Iterations 1
DICPCG:  Solving for p, Initial residual = 3.42456e-09, Final residual = 3.42456e-09, No Iterations 0
DICPCG:  Solving for p, Initial residual = 3.42456e-09, Final residual = 3.42456e-09, No Iterations 0
diagonal:  Solving for rho, Initial residual = 0, Final residual = 0, No Iterations 0
time step continuity errors : sum local = 9.22534e-14, global = -1.07144e-14, cumulative = 8.14153e-12
DICPCG:  Solving for p, Initial residual = 3.44772e-09, Final residual = 3.44772e-09, No Iterations 0
DICPCG:  Solving for p, Initial residual = 3.44772e-09, Final residual = 3.44772e-09, No Iterations 0
DICPCG:  Solving for p, Initial residual = 3.44772e-09, Final residual = 3.44772e-09, No Iterations 0
diagonal:  Solving for rho, Initial residual = 0, Final residual = 0, No Iterations 0
time step continuity errors : sum local = 9.28765e-14, global = -1.0625e-14, cumulative = 8.13091e-12
DILUPBiCGStab:  Solving for epsilon, Initial residual = 1.91821e-09, Final residual = 1.89913e-15, No Iterations 1
DILUPBiCGStab:  Solving for k, Initial residual = 1.98321e-09, Final residual = 1.54562e-14, No Iterations 1
PIMPLE: converged in 2 iterations
ExecutionTime = 489.84 s  ClockTime = 494 s

Courant Number mean: 3.63072e-11 max: 0.20352
deltaT = 1.21271e-05
Time = 0.00180701

diagonal:  Solving for rho, Initial residual = 0, Final residual = 0, No Iterations 0
PIMPLE: iteration 1
DILUPBiCGStab:  Solving for Ux, Initial residual = 6.06836e-08, Final residual = 3.98192e-15, No Iterations 1
DILUPBiCGStab:  Solving for Uy, Initial residual = 4.05919e-06, Final residual = 2.54572e-13, No Iterations 1
DILUPBiCGStab:  Solving for Uz, Initial residual = 6.79484e-09, Final residual = 2.66212e-15, No Iterations 1
DILUPBiCGStab:  Solving for O2, Initial residual = 2.73212e-10, Final residual = 4.63132e-18, No Iterations 1
DILUPBiCGStab:  Solving for H2, Initial residual = 2.57161e-10, Final residual = 1.763e-19, No Iterations 1
DILUPBiCGStab:  Solving for H2O:  solution singularity
DILUPBiCGStab:  Solving for h, Initial residual = 1.70844e-08, Final residual = 2.11011e-15, No Iterations 1
min/max(T) = 290.526, 300.218
DICPCG:  Solving for p, Initial residual = 9.82766e-08, Final residual = 3.92446e-09, No Iterations 2
DICPCG:  Solving for p, Initial residual = 4.27399e-09, Final residual = 4.27399e-09, No Iterations 0
DICPCG:  Solving for p, Initial residual = 4.27399e-09, Final residual = 4.27399e-09, No Iterations 0
diagonal:  Solving for rho, Initial residual = 0, Final residual = 0, No Iterations 0
time step continuity errors : sum local = 1.06228e-13, global = 2.82552e-14, cumulative = 8.15916e-12
DICPCG:  Solving for p, Initial residual = 4.27309e-09, Final residual = 4.27309e-09, No Iterations 0
DICPCG:  Solving for p, Initial residual = 4.27309e-09, Final residual = 4.27309e-09, No Iterations 0
DICPCG:  Solving for p, Initial residual = 4.27309e-09, Final residual = 4.27309e-09, No Iterations 0
diagonal:  Solving for rho, Initial residual = 0, Final residual = 0, No Iterations 0
time step continuity errors : sum local = 1.06205e-13, global = 2.85426e-14, cumulative = 8.18771e-12
PIMPLE: iteration 2
DILUPBiCGStab:  Solving for Ux, Initial residual = 1.83085e-08, Final residual = 1.5329e-15, No Iterations 1
DILUPBiCGStab:  Solving for Uy, Initial residual = 1.23486e-06, Final residual = 9.615e-14, No Iterations 1
DILUPBiCGStab:  Solving for Uz, Initial residual = 2.06809e-09, Final residual = 1.00975e-15, No Iterations 1
DILUPBiCGStab:  Solving for O2, Initial residual = 3.4485e-10, Final residual = 3.38452e-17, No Iterations 1
DILUPBiCGStab:  Solving for H2, Initial residual = 8.6159e-11, Final residual = 6.11794e-20, No Iterations 1
DILUPBiCGStab:  Solving for H2O:  solution singularity
DILUPBiCGStab:  Solving for h, Initial residual = 4.932e-09, Final residual = 7.46563e-16, No Iterations 1
min/max(T) = 290.274, 300.218
DICPCG:  Solving for p, Initial residual = 1.27374e-08, Final residual = 3.93604e-09, No Iterations 1
DICPCG:  Solving for p, Initial residual = 3.58795e-09, Final residual = 3.58795e-09, No Iterations 0
DICPCG:  Solving for p, Initial residual = 3.58795e-09, Final residual = 3.58795e-09, No Iterations 0
diagonal:  Solving for rho, Initial residual = 0, Final residual = 0, No Iterations 0
time step continuity errors : sum local = 9.78859e-14, global = -1.42114e-14, cumulative = 8.1735e-12
DICPCG:  Solving for p, Initial residual = 3.60541e-09, Final residual = 3.60541e-09, No Iterations 0
DICPCG:  Solving for p, Initial residual = 3.60541e-09, Final residual = 3.60541e-09, No Iterations 0
DICPCG:  Solving for p, Initial residual = 3.60541e-09, Final residual = 3.60541e-09, No Iterations 0
diagonal:  Solving for rho, Initial residual = 0, Final residual = 0, No Iterations 0
time step continuity errors : sum local = 9.83618e-14, global = -1.41225e-14, cumulative = 8.15937e-12
DILUPBiCGStab:  Solving for epsilon, Initial residual = 1.89947e-09, Final residual = 1.73192e-15, No Iterations 1
DILUPBiCGStab:  Solving for k, Initial residual = 1.95278e-09, Final residual = 1.40488e-14, No Iterations 1
PIMPLE: converged in 2 iterations
ExecutionTime = 493.45 s  ClockTime = 497 s

Courant Number mean: 3.59157e-11 max: 0.203466
deltaT = 1.1921e-05
Time = 0.00181893

diagonal:  Solving for rho, Initial residual = 0, Final residual = 0, No Iterations 0
PIMPLE: iteration 1
DILUPBiCGStab:  Solving for Ux, Initial residual = 5.94237e-08, Final residual = 3.96975e-15, No Iterations 1
DILUPBiCGStab:  Solving for Uy, Initial residual = 3.95567e-06, Final residual = 2.46818e-13, No Iterations 1
DILUPBiCGStab:  Solving for Uz, Initial residual = 6.70485e-09, Final residual = 2.49387e-15, No Iterations 1
DILUPBiCGStab:  Solving for O2, Initial residual = 2.67378e-10, Final residual = 4.0921e-18, No Iterations 1
DILUPBiCGStab:  Solving for H2, Initial residual = 2.51896e-10, Final residual = 1.71868e-19, No Iterations 1
DILUPBiCGStab:  Solving for H2O:  solution singularity
DILUPBiCGStab:  Solving for h, Initial residual = 1.64768e-08, Final residual = 1.806e-15, No Iterations 1
min/max(T) = 290.279, 300.222
DICPCG:  Solving for p, Initial residual = 9.62083e-08, Final residual = 3.86322e-09, No Iterations 2
DICPCG:  Solving for p, Initial residual = 4.1999e-09, Final residual = 4.1999e-09, No Iterations 0
DICPCG:  Solving for p, Initial residual = 4.1999e-09, Final residual = 4.1999e-09, No Iterations 0
diagonal:  Solving for rho, Initial residual = 0, Final residual = 0, No Iterations 0
time step continuity errors : sum local = 1.05913e-13, global = 2.78929e-14, cumulative = 8.18727e-12
DICPCG:  Solving for p, Initial residual = 4.19619e-09, Final residual = 4.19619e-09, No Iterations 0
DICPCG:  Solving for p, Initial residual = 4.19619e-09, Final residual = 4.19619e-09, No Iterations 0
DICPCG:  Solving for p, Initial residual = 4.19619e-09, Final residual = 4.19619e-09, No Iterations 0
diagonal:  Solving for rho, Initial residual = 0, Final residual = 0, No Iterations 0
time step continuity errors : sum local = 1.0582e-13, global = 2.8173e-14, cumulative = 8.21544e-12
PIMPLE: iteration 2
DILUPBiCGStab:  Solving for Ux, Initial residual = 1.79568e-08, Final residual = 1.49346e-15, No Iterations 1
DILUPBiCGStab:  Solving for Uy, Initial residual = 1.1453e-06, Final residual = 8.64676e-14, No Iterations 1
DILUPBiCGStab:  Solving for Uz, Initial residual = 2.03673e-09, Final residual = 9.2534e-16, No Iterations 1
DILUPBiCGStab:  Solving for O2, Initial residual = 3.40502e-10, Final residual = 2.70324e-17, No Iterations 1
DILUPBiCGStab:  Solving for H2, Initial residual = 8.58533e-11, Final residual = 6.03249e-20, No Iterations 1
DILUPBiCGStab:  Solving for H2O:  solution singularity
DILUPBiCGStab:  Solving for h, Initial residual = 4.77293e-09, Final residual = 6.50031e-16, No Iterations 1
min/max(T) = 290.032, 300.223
DICPCG:  Solving for p, Initial residual = 1.25151e-08, Final residual = 3.67423e-09, No Iterations 1
DICPCG:  Solving for p, Initial residual = 3.35735e-09, Final residual = 3.35735e-09, No Iterations 0
DICPCG:  Solving for p, Initial residual = 3.35735e-09, Final residual = 3.35735e-09, No Iterations 0
diagonal:  Solving for rho, Initial residual = 0, Final residual = 0, No Iterations 0
time step continuity errors : sum local = 9.27025e-14, global = -1.28487e-14, cumulative = 8.20259e-12
DICPCG:  Solving for p, Initial residual = 3.37417e-09, Final residual = 3.37417e-09, No Iterations 0
DICPCG:  Solving for p, Initial residual = 3.37417e-09, Final residual = 3.37417e-09, No Iterations 0
DICPCG:  Solving for p, Initial residual = 3.37417e-09, Final residual = 3.37417e-09, No Iterations 0
diagonal:  Solving for rho, Initial residual = 0, Final residual = 0, No Iterations 0
time step continuity errors : sum local = 9.31666e-14, global = -1.27625e-14, cumulative = 8.18983e-12
DILUPBiCGStab:  Solving for epsilon, Initial residual = 1.88349e-09, Final residual = 1.58198e-15, No Iterations 1
DILUPBiCGStab:  Solving for k, Initial residual = 1.9226e-09, Final residual = 1.27833e-14, No Iterations 1
PIMPLE: converged in 2 iterations
ExecutionTime = 497.19 s  ClockTime = 501 s

Courant Number mean: 3.55532e-11 max: 0.203436
deltaT = 1.17203e-05
Time = 0.00183065

diagonal:  Solving for rho, Initial residual = 0, Final residual = 0, No Iterations 0
PIMPLE: iteration 1
DILUPBiCGStab:  Solving for Ux, Initial residual = 5.8316e-08, Final residual = 3.88774e-15, No Iterations 1
DILUPBiCGStab:  Solving for Uy, Initial residual = 3.76881e-06, Final residual = 2.28642e-13, No Iterations 1
DILUPBiCGStab:  Solving for Uz, Initial residual = 6.61258e-09, Final residual = 2.29837e-15, No Iterations 1
DILUPBiCGStab:  Solving for O2, Initial residual = 2.6286e-10, Final residual = 3.65679e-18, No Iterations 1
DILUPBiCGStab:  Solving for H2, Initial residual = 2.47802e-10, Final residual = 1.66252e-19, No Iterations 1
DILUPBiCGStab:  Solving for H2O:  solution singularity
DILUPBiCGStab:  Solving for h, Initial residual = 1.58609e-08, Final residual = 1.50874e-15, No Iterations 1
min/max(T) = 290.039, 300.228
DICPCG:  Solving for p, Initial residual = 9.42759e-08, Final residual = 3.31129e-09, No Iterations 2
DICPCG:  Solving for p, Initial residual = 3.59143e-09, Final residual = 3.59143e-09, No Iterations 0
DICPCG:  Solving for p, Initial residual = 3.59143e-09, Final residual = 3.59143e-09, No Iterations 0
diagonal:  Solving for rho, Initial residual = 0, Final residual = 0, No Iterations 0
time step continuity errors : sum local = 9.18763e-14, global = 2.36073e-14, cumulative = 8.21344e-12
DICPCG:  Solving for p, Initial residual = 3.58875e-09, Final residual = 3.58875e-09, No Iterations 0
DICPCG:  Solving for p, Initial residual = 3.58875e-09, Final residual = 3.58875e-09, No Iterations 0
DICPCG:  Solving for p, Initial residual = 3.58875e-09, Final residual = 3.58875e-09, No Iterations 0
diagonal:  Solving for rho, Initial residual = 0, Final residual = 0, No Iterations 0
time step continuity errors : sum local = 9.18078e-14, global = 2.38737e-14, cumulative = 8.23731e-12
PIMPLE: iteration 2
DILUPBiCGStab:  Solving for Ux, Initial residual = 1.76587e-08, Final residual = 1.42962e-15, No Iterations 1
DILUPBiCGStab:  Solving for Uy, Initial residual = 1.09661e-06, Final residual = 7.87545e-14, No Iterations 1
DILUPBiCGStab:  Solving for Uz, Initial residual = 2.0065e-09, Final residual = 8.38092e-16, No Iterations 1
DILUPBiCGStab:  Solving for O2, Initial residual = 3.01004e-10, Final residual = 2.22772e-17, No Iterations 1
DILUPBiCGStab:  Solving for H2, Initial residual = 8.39115e-11, Final residual = 5.81237e-20, No Iterations 1
DILUPBiCGStab:  Solving for H2O:  solution singularity
DILUPBiCGStab:  Solving for h, Initial residual = 4.66896e-09, Final residual = 5.34616e-16, No Iterations 1
min/max(T) = 289.795, 300.227
DICPCG:  Solving for p, Initial residual = 1.17986e-08, Final residual = 3.34506e-09, No Iterations 1
DICPCG:  Solving for p, Initial residual = 3.06373e-09, Final residual = 3.06373e-09, No Iterations 0
DICPCG:  Solving for p, Initial residual = 3.06373e-09, Final residual = 3.06373e-09, No Iterations 0
diagonal:  Solving for rho, Initial residual = 0, Final residual = 0, No Iterations 0
time step continuity errors : sum local = 8.56256e-14, global = -1.12558e-14, cumulative = 8.22605e-12
DICPCG:  Solving for p, Initial residual = 3.0819e-09, Final residual = 3.0819e-09, No Iterations 0
DICPCG:  Solving for p, Initial residual = 3.0819e-09, Final residual = 3.0819e-09, No Iterations 0
DICPCG:  Solving for p, Initial residual = 3.0819e-09, Final residual = 3.0819e-09, No Iterations 0
diagonal:  Solving for rho, Initial residual = 0, Final residual = 0, No Iterations 0
time step continuity errors : sum local = 8.61326e-14, global = -1.11736e-14, cumulative = 8.21488e-12
DILUPBiCGStab:  Solving for epsilon, Initial residual = 1.8683e-09, Final residual = 1.44668e-15, No Iterations 1
DILUPBiCGStab:  Solving for k, Initial residual = 1.8926e-09, Final residual = 1.16393e-14, No Iterations 1
PIMPLE: converged in 2 iterations
ExecutionTime = 500.91 s  ClockTime = 505 s


    From virtual bool Foam::regIOobject::readIfModified()
    in file db/regIOobject/regIOobjectRead.C at line 266
        Re-reading object controlDict from file "/home/chenhu/OpenFOAM/chenhu-v2406/run/Bunkering/Bunkering_02/system/controlDict"
--> FOAM Warning : 


    From static Foam::autoPtr<Foam::functionObject> Foam::functionObject::New(const Foam::word&, const Foam::Time&, const Foam::dictionary&)
    in file db/functionObjects/functionObject/functionObject.C at line 129.
--> loading function object 'CourantNo'

Courant Number mean: 3.52014e-11 max: 0.203415
deltaT = 1.15236e-05
Time = 0.00184218

diagonal:  Solving for rho, Initial residual = 0, Final residual = 0, No Iterations 0
PIMPLE: iteration 1
DILUPBiCGStab:  Solving for Ux, Initial residual = 5.73496e-08, Final residual = 3.73329e-15, No Iterations 1
DILUPBiCGStab:  Solving for Uy, Initial residual = 3.60695e-06, Final residual = 2.08856e-13, No Iterations 1
DILUPBiCGStab:  Solving for Uz, Initial residual = 6.51724e-09, Final residual = 2.09304e-15, No Iterations 1
DILUPBiCGStab:  Solving for O2, Initial residual = 2.58146e-10, Final residual = 3.31209e-18, No Iterations 1
DILUPBiCGStab:  Solving for H2, Initial residual = 2.43707e-10, Final residual = 1.59774e-19, No Iterations 1
DILUPBiCGStab:  Solving for H2O:  solution singularity
DILUPBiCGStab:  Solving for h, Initial residual = 1.52823e-08, Final residual = 1.23091e-15, No Iterations 1
min/max(T) = 289.774, 300.231
DICPCG:  Solving for p, Initial residual = 9.23643e-08, Final residual = 3.08484e-09, No Iterations 2
DICPCG:  Solving for p, Initial residual = 3.33433e-09, Final residual = 3.33433e-09, No Iterations 0
DICPCG:  Solving for p, Initial residual = 3.33433e-09, Final residual = 3.33433e-09, No Iterations 0
diagonal:  Solving for rho, Initial residual = 0, Final residual = 0, No Iterations 0
time step continuity errors : sum local = 8.65877e-14, global = 2.19649e-14, cumulative = 8.23684e-12
DICPCG:  Solving for p, Initial residual = 3.3315e-09, Final residual = 3.3315e-09, No Iterations 0
DICPCG:  Solving for p, Initial residual = 3.3315e-09, Final residual = 3.3315e-09, No Iterations 0
DICPCG:  Solving for p, Initial residual = 3.3315e-09, Final residual = 3.3315e-09, No Iterations 0
diagonal:  Solving for rho, Initial residual = 0, Final residual = 0, No Iterations 0
time step continuity errors : sum local = 8.65142e-14, global = 2.22215e-14, cumulative = 8.25907e-12
PIMPLE: iteration 2
DILUPBiCGStab:  Solving for Ux, Initial residual = 1.73995e-08, Final residual = 1.34398e-15, No Iterations 1
DILUPBiCGStab:  Solving for Uy, Initial residual = 1.08614e-06, Final residual = 7.29772e-14, No Iterations 1
DILUPBiCGStab:  Solving for Uz, Initial residual = 1.97471e-09, Final residual = 7.51875e-16, No Iterations 1
DILUPBiCGStab:  Solving for O2, Initial residual = 2.81875e-10, Final residual = 1.79645e-17, No Iterations 1
DILUPBiCGStab:  Solving for H2, Initial residual = 8.06305e-11, Final residual = 5.49026e-20, No Iterations 1
DILUPBiCGStab:  Solving for H2O:  solution singularity
DILUPBiCGStab:  Solving for h, Initial residual = 4.50978e-09, Final residual = 4.30922e-16, No Iterations 1
min/max(T) = 289.547, 300.23
DICPCG:  Solving for p, Initial residual = 1.1419e-08, Final residual = 3.02822e-09, No Iterations 1
DICPCG:  Solving for p, Initial residual = 2.77626e-09, Final residual = 2.77626e-09, No Iterations 0
DICPCG:  Solving for p, Initial residual = 2.77626e-09, Final residual = 2.77626e-09, No Iterations 0
diagonal:  Solving for rho, Initial residual = 0, Final residual = 0, No Iterations 0
time step continuity errors : sum local = 7.8637e-14, global = -9.14887e-15, cumulative = 8.24992e-12
DICPCG:  Solving for p, Initial residual = 2.79014e-09, Final residual = 2.79014e-09, No Iterations 0
DICPCG:  Solving for p, Initial residual = 2.79014e-09, Final residual = 2.79014e-09, No Iterations 0
DICPCG:  Solving for p, Initial residual = 2.79014e-09, Final residual = 2.79014e-09, No Iterations 0
diagonal:  Solving for rho, Initial residual = 0, Final residual = 0, No Iterations 0
time step continuity errors : sum local = 7.90295e-14, global = -9.0724e-15, cumulative = 8.24084e-12
DILUPBiCGStab:  Solving for epsilon, Initial residual = 1.85458e-09, Final residual = 1.32407e-15, No Iterations 1
DILUPBiCGStab:  Solving for k, Initial residual = 1.86295e-09, Final residual = 1.05986e-14, No Iterations 1
PIMPLE: converged in 2 iterations
ExecutionTime = 504.61 s  ClockTime = 508 s

End

