/*---------------------------------------------------------------------------*\
| =========                 |                                                 |
| \\      /  F ield         | OpenFOAM: The Open Source CFD Toolbox           |
|  \\    /   O peration     | Version:  2406                                  |
|   \\  /    A nd           | Website:  www.openfoam.com                      |
|    \\/     M anipulation  |                                                 |
\*---------------------------------------------------------------------------*/
Build  : _630d60de3b-20240620 OPENFOAM=2406 version=v2406
Arch   : "LSB;label=32;scalar=64"
Exec   : snappyHexMesh -overwrite
Date   : Mar 20 2026
Time   : 16:33:09
Host   : RISEPC-MhOrpSuy
PID    : 284829
I/O    : uncollated
Case   : /home/chenhu/OpenFOAM/chenhu-v2406/run/Bunkering/Bunkering_02
nProcs : 1
trapFpe: Floating point exception trapping enabled (FOAM_SIGFPE).
fileModificationChecking : Monitoring run-time modified files using timeStampMaster (fileModificationSkew 5, maxFileModificationPolls 20)
allowSystemOperations : Allowing user-supplied system call operations

// * * * * * * * * * * * * * * * * * * * * * * * * * * * * * * * * * * * * * //
Create time

Create mesh for time = 0

Read mesh in = 0.03 s
Using #codeStream at line 72 in file "system/snappyHexMeshDict/geometry"
Using #codeStream with "/home/chenhu/OpenFOAM/chenhu-v2406/run/Bunkering/Bunkering_02/dynamicCode/platforms/linux64GccDPInt32Opt/lib/libcodeStream_d7dee851a6a002b13cfcc4786841af824ce2bf85.so"
Could not load "/home/chenhu/OpenFOAM/chenhu-v2406/run/Bunkering/Bunkering_02/dynamicCode/platforms/linux64GccDPInt32Opt/lib/libcodeStream_d7dee851a6a002b13cfcc4786841af824ce2bf85.so"
/home/chenhu/OpenFOAM/chenhu-v2406/run/Bunkering/Bunkering_02/dynamicCode/platforms/linux64GccDPInt32Opt/lib/libcodeStream_d7dee851a6a002b13cfcc4786841af824ce2bf85.so: cannot open shared object file: No such file or directory
Creating new library in "dynamicCode/_d7dee851a6a002b13cfcc4786841af824ce2bf85/platforms/linux64GccDPInt32Opt/lib/libcodeStream_d7dee851a6a002b13cfcc4786841af824ce2bf85.so"
Invoking wmake libso /home/chenhu/OpenFOAM/chenhu-v2406/run/Bunkering/Bunkering_02/dynamicCode/_d7dee851a6a002b13cfcc4786841af824ce2bf85
wmake libso /home/chenhu/OpenFOAM/chenhu-v2406/run/Bunkering/Bunkering_02/dynamicCode/_d7dee851a6a002b13cfcc4786841af824ce2bf85
    ln: ./lnInclude
    dep: codeStreamTemplate.C
    Ctoo: codeStreamTemplate.C
    link: /home/chenhu/OpenFOAM/chenhu-v2406/run/Bunkering/Bunkering_02/dynamicCode/_d7dee851a6a002b13cfcc4786841af824ce2bf85/../platforms/linux64GccDPInt32Opt/lib/libcodeStream_d7dee851a6a002b13cfcc4786841af824ce2bf85.so
Using #codeStream at line 213 in file "system/snappyHexMeshDict/castellatedMeshControls/refinementRegions"
Using #codeStream with "/home/chenhu/OpenFOAM/chenhu-v2406/run/Bunkering/Bunkering_02/dynamicCode/platforms/linux64GccDPInt32Opt/lib/libcodeStream_f67e2fd5cb1766e4ac0d6ce8844f56377f01c3ad.so"
Could not load "/home/chenhu/OpenFOAM/chenhu-v2406/run/Bunkering/Bunkering_02/dynamicCode/platforms/linux64GccDPInt32Opt/lib/libcodeStream_f67e2fd5cb1766e4ac0d6ce8844f56377f01c3ad.so"
/home/chenhu/OpenFOAM/chenhu-v2406/run/Bunkering/Bunkering_02/dynamicCode/platforms/linux64GccDPInt32Opt/lib/libcodeStream_f67e2fd5cb1766e4ac0d6ce8844f56377f01c3ad.so: cannot open shared object file: No such file or directory
Creating new library in "dynamicCode/_f67e2fd5cb1766e4ac0d6ce8844f56377f01c3ad/platforms/linux64GccDPInt32Opt/lib/libcodeStream_f67e2fd5cb1766e4ac0d6ce8844f56377f01c3ad.so"
Invoking wmake libso /home/chenhu/OpenFOAM/chenhu-v2406/run/Bunkering/Bunkering_02/dynamicCode/_f67e2fd5cb1766e4ac0d6ce8844f56377f01c3ad
wmake libso /home/chenhu/OpenFOAM/chenhu-v2406/run/Bunkering/Bunkering_02/dynamicCode/_f67e2fd5cb1766e4ac0d6ce8844f56377f01c3ad
    ln: ./lnInclude
    dep: codeStreamTemplate.C
    Ctoo: codeStreamTemplate.C
    link: /home/chenhu/OpenFOAM/chenhu-v2406/run/Bunkering/Bunkering_02/dynamicCode/_f67e2fd5cb1766e4ac0d6ce8844f56377f01c3ad/../platforms/linux64GccDPInt32Opt/lib/libcodeStream_f67e2fd5cb1766e4ac0d6ce8844f56377f01c3ad.so

Overall mesh bounding box  : (-150 -40 0) (40 40 42)
Relative tolerance         : 1e-06
Absolute matching distance : 0.00021039

Reading refinement surfaces.
Read refinement surfaces in = 0 s

Reading refinement shells.
Refinement level 2 for all cells inside refinementBox_gap
Refinement level 1 for all cells inside refinementBox_1xsmall
Refinement level 2 for all cells inside refinementBox_2xsmall
Refinement level 3 for all cells inside refinementBox_3xsmall
Refinement level 4 for all cells inside refinementBox_4xsmall
Refinement level 5 for all cells inside refinementBox_5xsmall
Refinement level 6 for all cells inside refinementBox_6xsmall
Refinement level 7 for all cells inside refinementBox_7xsmall
Read refinement shells in = 0 s

Setting refinement level of surface to be consistent with shells.
For geometry bunkering-boat_m.stl detected 7 uncached triangles out of 12
For geometry bunkering-quay_m.stl detected 2 uncached triangles out of 12
For geometry bunkering-nozzle_up_m.stl detected 10 uncached triangles out of 28
Checked shell refinement in = 0 s

Reading features.
Read edgeMesh bunkering-boat_m.eMesh
    points      : 8
    edges       : 12
    boundingBox : (-120 1 0) (10 31 12)

Refinement level according to distance to "bunkering-boat_m.eMesh" (8 points, 12 edges).
    level 1 for all cells within 0 metre.
Read edgeMesh bunkering-quay_m.eMesh
    points      : 8
    edges       : 12
    boundingBox : (-200 -50 0) (100 0 5)

Refinement level according to distance to "bunkering-quay_m.eMesh" (8 points, 12 edges).
    level 1 for all cells within 0 metre.
Read edgeMesh bunkering-nozzle_up_m.eMesh
    points      : 16
    edges       : 24
    boundingBox : (-0.1 -0.1 6.8) (0.1 0.1 7)

Refinement level according to distance to "bunkering-nozzle_up_m.eMesh" (16 points, 24 edges).
    level 6 for all cells within 0 metre.
Read features in = 0 s


Determining initial surface intersections
-----------------------------------------

Edge intersection testing:
    Number of edges             : 798170
    Number of edges to retest   : 0
    Number of intersected edges : 0
Edge intersection testing:
    Number of edges             : 798170
    Number of edges to retest   : 798170
    Number of intersected edges : 12058
Calculated surface intersections in = 0.48 s

Initial mesh : cells:261800  faces:798170  points:274770
Cells per refinement level:
    0	261800
Setting refinement level of surface to be consistent with curvature.
Checked curvature refinement in = 0 s


Adding patches for surface regions
----------------------------------

Patch Type                Region                        
----- ----                ------                        
bunkering-boat_m:

6     wall                bunkering-boat_m              

bunkering-quay_m:

7     wall                bunkering-quay_m              

bunkering-nozzle_up_m:

8     wall                bunkering-nozzle_up_m         

Added patches in = 0.01 s

Edge intersection testing:
    Number of edges             : 798170
    Number of edges to retest   : 0
    Number of intersected edges : 12058
Decomposition method none [1]

Refinement phase
----------------

Found point (0 0 10) in cell 233800 on processor 0

Feature refinement iteration 0
------------------------------

Marked for refinement due to explicit features             : 396 cells.
Determined cells to refine in = 0.96 s
Selected for feature refinement : 396 cells (out of 261800)
Edge intersection testing:
    Number of edges             : 808838
    Number of edges to retest   : 18120
    Number of intersected edges : 14622
Refined mesh in = 0.36 s
After refinement feature refinement iteration 0 : cells:264572  faces:808838  points:280280
Cells per refinement level:
    0	261404
    1	3168

Feature refinement iteration 1
------------------------------

Marked for refinement due to explicit features             : 8 cells.
Determined cells to refine in = 0.96 s
Selected for feature refinement : 8 cells (out of 264572)
Edge intersection testing:
    Number of edges             : 809042
    Number of edges to retest   : 336
    Number of intersected edges : 14622
Refined mesh in = 0.33 s
After refinement feature refinement iteration 1 : cells:264628  faces:809042  points:280378
Cells per refinement level:
    0	261404
    1	3160
    2	64

Feature refinement iteration 2
------------------------------

Marked for refinement due to explicit features             : 12 cells.
Determined cells to refine in = 0.97 s
Selected for feature refinement : 20 cells (out of 264628)
Edge intersection testing:
    Number of edges             : 809534
    Number of edges to retest   : 804
    Number of intersected edges : 14650
Refined mesh in = 0.3 s
After refinement feature refinement iteration 2 : cells:264768  faces:809534  points:280599
Cells per refinement level:
    0	261400
    1	3188
    2	84
    3	96

Feature refinement iteration 3
------------------------------

Marked for refinement due to explicit features             : 16 cells.
Determined cells to refine in = 0.94 s
Selected for feature refinement : 16 cells (out of 264768)
Edge intersection testing:
    Number of edges             : 809930
    Number of edges to retest   : 616
    Number of intersected edges : 14704
Refined mesh in = 0.32 s
After refinement feature refinement iteration 3 : cells:264880  faces:809930  points:280779
Cells per refinement level:
    0	261400
    1	3188
    2	84
    3	80
    4	128

Feature refinement iteration 4
------------------------------

Marked for refinement due to explicit features             : 47 cells.
Determined cells to refine in = 0.94 s
Selected for feature refinement : 117 cells (out of 264880)
Edge intersection testing:
    Number of edges             : 812813
    Number of edges to retest   : 4111
    Number of intersected edges : 14891
Refined mesh in = 0.33 s
After refinement feature refinement iteration 4 : cells:265699  faces:812813  points:282064
Cells per refinement level:
    0	261389
    1	3265
    2	151
    3	221
    4	297
    5	376

Feature refinement iteration 5
------------------------------

Marked for refinement due to explicit features             : 100 cells.
Determined cells to refine in = 0.89 s
Selected for feature refinement : 201 cells (out of 265699)
Edge intersection testing:
    Number of edges             : 817772
    Number of edges to retest   : 7780
    Number of intersected edges : 15397
Refined mesh in = 0.35 s
After refinement feature refinement iteration 5 : cells:267106  faces:817772  points:284281
Cells per refinement level:
    0	261385
    1	3293
    2	177
    3	249
    4	387
    5	839
    6	776

Feature refinement iteration 6
------------------------------

Marked for refinement due to explicit features             : 7 cells.
Determined cells to refine in = 0.95 s
Selected for feature refinement : 13 cells (out of 267106)
Edge intersection testing:
    Number of edges             : 818072
    Number of edges to retest   : 1052
    Number of intersected edges : 15402
Refined mesh in = 0.29 s
After refinement feature refinement iteration 6 : cells:267197  faces:818072  points:284399
Cells per refinement level:
    0	261384
    1	3300
    2	184
    3	256
    4	393
    5	848
    6	832

Feature refinement iteration 7
------------------------------

Marked for refinement due to explicit features             : 1 cells.
Determined cells to refine in = 0.92 s
Selected for feature refinement : 2 cells (out of 267197)
Edge intersection testing:
    Number of edges             : 818114
    Number of edges to retest   : 185
    Number of intersected edges : 15402
Refined mesh in = 0.29 s
After refinement feature refinement iteration 7 : cells:267211  faces:818114  points:284413
Cells per refinement level:
    0	261384
    1	3300
    2	184
    3	256
    4	392
    5	855
    6	840

Feature refinement iteration 8
------------------------------

Marked for refinement due to explicit features             : 1 cells.
Determined cells to refine in = 0.91 s
Selected for feature refinement : 1 cells (out of 267211)
Edge intersection testing:
    Number of edges             : 818141
    Number of edges to retest   : 86
    Number of intersected edges : 15402
Refined mesh in = 0.29 s
After refinement feature refinement iteration 8 : cells:267218  faces:818141  points:284427
Cells per refinement level:
    0	261384
    1	3300
    2	184
    3	256
    4	392
    5	854
    6	848

Feature refinement iteration 9
------------------------------

Marked for refinement due to explicit features             : 0 cells.
Determined cells to refine in = 0.9 s
Selected for feature refinement : 0 cells (out of 267218)
Stopping refining since too few cells selected.


Surface refinement iteration 0
------------------------------

Marked for refinement due to surface intersection          : 19158 cells.
Marked for refinement due to curvature/regions             : 0 cells.
Determined cells to refine in = 0.02 s
Selected for refinement : 19172 cells (out of 267218)
Edge intersection testing:
    Number of edges             : 1255298
    Number of edges to retest   : 572551
    Number of intersected edges : 51384
Refined mesh in = 0.65 s
After refinement surface refinement iteration 0 : cells:401422  faces:1255298  points:453014
Cells per refinement level:
    0	242960
    1	150372
    2	2728
    3	384
    4	358
    5	842
    6	3026
    7	752

Surface refinement iteration 1
------------------------------

Marked for refinement due to surface intersection          : 7056 cells.
Marked for refinement due to curvature/regions             : 0 cells.
Determined cells to refine in = 0.04 s
Selected for refinement : 7065 cells (out of 401422)
Edge intersection testing:
    Number of edges             : 1411013
    Number of edges to retest   : 203187
    Number of intersected edges : 62389
Refined mesh in = 0.6 s
After refinement surface refinement iteration 1 : cells:450877  faces:1411013  points:509837
Cells per refinement level:
    0	242954
    1	143697
    2	56440
    3	960
    4	358
    5	762
    6	3482
    7	2224

Surface refinement iteration 2
------------------------------

Marked for refinement due to surface intersection          : 245 cells.
Marked for refinement due to curvature/regions             : 0 cells.
Determined cells to refine in = 0.05 s
Selected for refinement : 250 cells (out of 450877)
Edge intersection testing:
    Number of edges             : 1416809
    Number of edges to retest   : 9776
    Number of intersected edges : 62863
Refined mesh in = 0.56 s
After refinement surface refinement iteration 2 : cells:452627  faces:1416809  points:512149
Cells per refinement level:
    0	242954
    1	143692
    2	56267
    3	2664
    4	358
    5	762
    6	3450
    7	2480

Surface refinement iteration 3
------------------------------

Marked for refinement due to surface intersection          : 22 cells.
Marked for refinement due to curvature/regions             : 0 cells.
Determined cells to refine in = 0.06 s
Selected for refinement : 24 cells (out of 452627)
Edge intersection testing:
    Number of edges             : 1417376
    Number of edges to retest   : 1714
    Number of intersected edges : 62920
Refined mesh in = 0.55 s
After refinement surface refinement iteration 3 : cells:452795  faces:1417376  points:512379
Cells per refinement level:
    0	242953
    1	143699
    2	56257
    3	2808
    4	358
    5	762
    6	3446
    7	2512

Surface refinement iteration 4
------------------------------

Marked for refinement due to surface intersection          : 0 cells.
Marked for refinement due to curvature/regions             : 0 cells.
Determined cells to refine in = 0.05 s
Selected for refinement : 0 cells (out of 452795)
Stopping refining since too few cells selected.


Removing mesh beyond surface intersections
------------------------------------------

Setting cellZones according to locationsInMesh:
Location : (0 0 10)
    cellZone : none

For cellZone none found point (0 0 10) in global region 1 out of 4 regions.
--> FOAM Warning : 
    From void Foam::meshRefinement::nearestFace(const labelUList&, const Foam::bitSet&, Foam::autoPtr<Foam::mapDistribute>&, Foam::labelList&, Foam::label) const
    in file meshRefinement/meshRefinement.C at line 515
    Did not visit some faces, e.g. face 137122 at (-146.967 4.25867 0.471158)
Keeping all cells containing inside points
Selected for keeping : 359038 cells.
Edge intersection testing:
    Number of edges             : 1143898
    Number of edges to retest   : 60474
    Number of intersected edges : 62920

Shell refinement iteration 0
----------------------------

Marked for refinement due to distance to explicit features : 0 cells.
Marked for refinement due to refinement shells             : 3719 cells.
Determined cells to refine in = 0.68 s
Selected for internal refinement : 4328 cells (out of 359038)
Edge intersection testing:
    Number of edges             : 1238041
    Number of edges to retest   : 147915
    Number of intersected edges : 63556
Refined mesh in = 0.55 s
After refinement shell refinement iteration 0 : cells:389334  faces:1238041  points:459940
Cells per refinement level:
    0	211449
    1	109728
    2	50767
    3	5316
    4	1326
    5	2126
    6	4870
    7	3752

Shell refinement iteration 1
----------------------------

Marked for refinement due to distance to explicit features : 0 cells.
Marked for refinement due to refinement shells             : 3142 cells.
Determined cells to refine in = 0.1 s
Selected for internal refinement : 3231 cells (out of 389334)
Edge intersection testing:
    Number of edges             : 1308943
    Number of edges to retest   : 99212
    Number of intersected edges : 63677
Refined mesh in = 0.57 s
After refinement shell refinement iteration 1 : cells:411951  faces:1308943  points:485686
Cells per refinement level:
    0	211441
    1	107938
    2	65138
    3	8564
    4	4638
    5	3666
    6	5726
    7	4840

Shell refinement iteration 2
----------------------------

Marked for refinement due to distance to explicit features : 0 cells.
Marked for refinement due to refinement shells             : 3150 cells.
Determined cells to refine in = 0.11 s
Selected for internal refinement : 3168 cells (out of 411951)
Edge intersection testing:
    Number of edges             : 1377484
    Number of edges to retest   : 93703
    Number of intersected edges : 63677
Refined mesh in = 0.6 s
After refinement shell refinement iteration 2 : cells:434127  faces:1377484  points:509900
Cells per refinement level:
    0	211439
    1	107950
    2	63720
    3	19172
    4	12334
    5	5346
    6	7406
    7	6760

Shell refinement iteration 3
----------------------------

Marked for refinement due to distance to explicit features : 0 cells.
Marked for refinement due to refinement shells             : 3090 cells.
Determined cells to refine in = 0.09 s
Selected for internal refinement : 3090 cells (out of 434127)
Edge intersection testing:
    Number of edges             : 1444765
    Number of edges to retest   : 87727
    Number of intersected edges : 63677
Refined mesh in = 0.64 s
After refinement shell refinement iteration 3 : cells:455757  faces:1444765  points:533968
Cells per refinement level:
    0	211439
    1	107950
    2	63720
    3	18212
    4	18844
    5	14226
    6	10766
    7	10600

Shell refinement iteration 4
----------------------------

Marked for refinement due to distance to explicit features : 0 cells.
Marked for refinement due to refinement shells             : 2460 cells.
Determined cells to refine in = 0.09 s
Selected for internal refinement : 2460 cells (out of 455757)
Edge intersection testing:
    Number of edges             : 1498213
    Number of edges to retest   : 70450
    Number of intersected edges : 63677
Refined mesh in = 0.67 s
After refinement shell refinement iteration 4 : cells:472977  faces:1498213  points:553007
Cells per refinement level:
    0	211439
    1	107950
    2	63720
    3	18212
    4	18154
    5	18696
    6	18446
    7	16360

Shell refinement iteration 5
----------------------------

Marked for refinement due to distance to explicit features : 0 cells.
Marked for refinement due to refinement shells             : 90 cells.
Determined cells to refine in = 0.1 s
Selected for internal refinement : 90 cells (out of 472977)
Edge intersection testing:
    Number of edges             : 1500148
    Number of edges to retest   : 3298
    Number of intersected edges : 63677
Refined mesh in = 0.69 s
After refinement shell refinement iteration 5 : cells:473607  faces:1500148  points:553682
Cells per refinement level:
    0	211439
    1	107950
    2	63720
    3	18212
    4	18154
    5	18606
    6	19166
    7	16360

Shell refinement iteration 6
----------------------------

Marked for refinement due to distance to explicit features : 0 cells.
Marked for refinement due to refinement shells             : 0 cells.
Determined cells to refine in = 0.09 s
Selected for internal refinement : 0 cells (out of 473607)
Stopping refining since too few cells selected.


Dangling coarse cells refinement iteration 0
--------------------------------------------

Determined cells to refine in = 0.01 s
Selected for refinement : 0 cells (out of 473607)
Stopping refining since too few cells selected.


Dangling coarse cells refinement iteration 0
--------------------------------------------

Determined cells to refine in = 0.01 s
Selected for refinement : 0 cells (out of 473607)
Stopping refining since too few cells selected.


Refinement transition refinement iteration 0
--------------------------------------------

Determined cells to refine in = 0 s
Selected for refinement : 0 cells (out of 473607)
Stopping refining since too few cells selected.


Splitting mesh at surface intersections
---------------------------------------

Introducing baffles for 63677 faces that are intersected by the surface.

Setting cellZones according to locationsInMesh:
Location : (0 0 10)
    cellZone : none

For cellZone none found point (0 0 10) in global region 1 out of 4 regions.
Edge intersection testing:
    Number of edges             : 1544913
    Number of edges to retest   : 427093
    Number of intersected edges : 108234
Created baffles in = 0.64 s


After introducing baffles : cells:473607  faces:1544913  points:553682
Cells per refinement level:
    0	211439
    1	107950
    2	63720
    3	18212
    4	18154
    5	18606
    6	19166
    7	16360

Introducing baffles to block off problem cells
----------------------------------------------

markFacesOnProblemCells : marked 122115 additional internal faces to be converted into baffles.
Analyzed problem cells in = 0.34 s


Introducing baffles to delete problem cells.

Edge intersection testing:
    Number of edges             : 1667028
    Number of edges to retest   : 369693
    Number of intersected edges : 108234
Created baffles in = 0.61 s


After introducing baffles : cells:473607  faces:1667028  points:553682
Cells per refinement level:
    0	211439
    1	107950
    2	63720
    3	18212
    4	18154
    5	18606
    6	19166
    7	16360
Setting cellZones according to locationsInMesh:
Location : (0 0 10)
    cellZone : none

For cellZone none found point (0 0 10) in global region 2100 out of 60896 regions.
Edge intersection testing:
    Number of edges             : 1667028
    Number of edges to retest   : 548852
    Number of intersected edges : 108234

Remove unreachable sections of mesh
-----------------------------------

Keeping all cells containing points 1((0 0 10))
Selected for keeping : 411750 cells.
Edge intersection testing:
    Number of edges             : 1295553
    Number of edges to retest   : 0
    Number of intersected edges : 44557
Split mesh in = 1.27 s


After subsetting : cells:411750  faces:1295553  points:472891
Cells per refinement level:
    0	211439
    1	63955
    2	48890
    3	17384
    4	18154
    5	18606
    6	18406
    7	14916

Introducing zones for interfaces
--------------------------------

Setting cellZones according to locationsInMesh:
Location : (0 0 10)
    cellZone : none

For cellZone none found point (0 0 10) in global region 0 out of 1 regions.
Setting faceZones according to neighbouring cellZones:

Edge intersection testing:
    Number of edges             : 1295553
    Number of edges to retest   : 0
    Number of intersected edges : 44557

Handling cells with snap problems
---------------------------------

Introducing baffles for 44557 faces that are intersected by the surface.

Setting cellZones according to locationsInMesh:
Location : (0 0 10)
    cellZone : none

For cellZone none found point (0 0 10) in global region 0 out of 1 regions.
Edge intersection testing:
    Number of edges             : 1295553
    Number of edges to retest   : 179096
    Number of intersected edges : 44557
Created baffles in = 0.89 s


After introducing baffles : cells:411750  faces:1295553  points:472891
Cells per refinement level:
    0	211439
    1	63955
    2	48890
    3	17384
    4	18154
    5	18606
    6	18406
    7	14916

Introducing baffles to block off problem cells
----------------------------------------------

markFacesOnProblemCells : marked 0 additional internal faces to be converted into baffles.
Analyzed problem cells in = 0.3 s


Introducing baffles to delete problem cells.

Created baffles in = 0.05 s


After introducing baffles : cells:411750  faces:1295553  points:472891
Cells per refinement level:
    0	211439
    1	63955
    2	48890
    3	17384
    4	18154
    5	18606
    6	18406
    7	14916
Setting cellZones according to locationsInMesh:
Location : (0 0 10)
    cellZone : none

For cellZone none found point (0 0 10) in global region 0 out of 1 regions.
Edge intersection testing:
    Number of edges             : 1295553
    Number of edges to retest   : 179096
    Number of intersected edges : 44557

Remove unreachable sections of mesh
-----------------------------------

Split mesh in = 0.57 s


After subsetting : cells:411750  faces:1295553  points:472891
Cells per refinement level:
    0	211439
    1	63955
    2	48890
    3	17384
    4	18154
    5	18606
    6	18406
    7	14916

Merge free-standing baffles
---------------------------

freeStandingBaffles : detected 0 free-standing baffles out of 0

Detected free-standing baffles : 0
Merged free-standing baffles in = 0.1 s


dupNonManifoldPoints : Found : 0 non-manifold points (out of 472891)
Detected unsplittable baffles : 0

Merge refined boundary faces
----------------------------

Merging 208 sets of faces.

Edge intersection testing:
    Number of edges             : 1295017
    Number of edges to retest   : 1463
    Number of intersected edges : 44021

Undo iteration 0
----------------
Checking faces in error :
    non-orthogonality > 55  degrees                        : 2852
    faces with face pyramid volume < 1e-13                 : 0
    faces with face-decomposition tet quality < 1e-15      : 0
    faces with concavity > 80  degrees                     : 0
    faces with skewness > 4   (internal) or 20  (boundary) : 0
    faces with interpolation weights (0..1)  < 0.05        : 0
    faces with volume ratio of neighbour cells < 0.01      : 0
    faces with face twist < 0.02                           : 0
    faces on cells with determinant < 0.001                : 0
Masters that need to be restored:0

Merging all points on surface that
- are used by only two boundary faces and
- make an angle with a cosine of more than 0.707107.

Removing 375 straight edge points ...

Edge intersection testing:
    Number of edges             : 1295017
    Number of edges to retest   : 2190
    Number of intersected edges : 44021

Undo iteration 0
----------------
Checking faces in error :
    non-orthogonality > 55  degrees                        : 2852
    faces with face pyramid volume < 1e-13                 : 0
    faces with face-decomposition tet quality < 1e-15      : 0
    faces with concavity > 80  degrees                     : 0
    faces with skewness > 4   (internal) or 20  (boundary) : 0
    faces with interpolation weights (0..1)  < 0.05        : 0
    faces with volume ratio of neighbour cells < 0.01      : 0
    faces with face twist < 0.02                           : 0
    faces on cells with determinant < 0.001                : 0
Detected 0 error faces on boundaries that have been merged. These will be restored to their original faces.

Detected 2852 error faces in mesh. Restoring neighbours of faces in error.

Edge intersection testing:
    Number of edges             : 1295017
    Number of edges to retest   : 25423
    Number of intersected edges : 44021
Refined mesh : cells:411750  faces:1295017  points:472352
Cells per refinement level:
    0	211439
    1	63955
    2	48890
    3	17384
    4	18154
    5	18606
    6	18406
    7	14916
Writing mesh to time constant
Wrote mesh in = 0.04 s.
Mesh refined in = 26.77 s.

Morphing phase
--------------

Duplicating 0 points on faceZones of type boundary
Snapping to features in 25 iterations ...
Constructing mesh displacer ...
Using mesh parameters 
{
    maxNonOrtho     55;
    maxBoundarySkewness 20;
    maxInternalSkewness 4;
    maxConcave      80;
    minVol          1e-13;
    minTetQuality   1e-15;
    minArea         -1;
    minTwist        0.02;
    minDeterminant  0.001;
    minFaceWeight   0.05;
    minVolRatio     0.01;
    minTriangleTwist -1;
    minEdgeLength   -1;
    relaxed
    {
        maxNonOrtho     60;
    }
    nSmoothScale    4;
    errorReduction  0.75;
}


Checking initial mesh ...
Checking faces in error :
    non-orthogonality > 55  degrees                        : 2852
    faces with face pyramid volume < 1e-13                 : 0
    faces with face-decomposition tet quality < 1e-15      : 0
    faces with concavity > 80  degrees                     : 0
    faces with skewness > 4   (internal) or 20  (boundary) : 0
    faces with interpolation weights (0..1)  < 0.05        : 0
    faces with volume ratio of neighbour cells < 0.01      : 0
    faces with face twist < 0.02                           : 0
    faces on cells with determinant < 0.001                : 0
Detected 2852 illegal faces (concave, zero area or negative cell pyramid volume)
Checked initial mesh in = 2.8 s


Smoothing patch points ...
Smoothing iteration 0
Found 0 non-manifold point(s).

Scaling iteration 0
Moving mesh using displacement scaling : min:1  max:1
Checking faces in error :
    non-orthogonality > 55  degrees                        : 2852
    faces with face pyramid volume < 1e-13                 : 0
    faces with face-decomposition tet quality < 1e-15      : 0
    faces with concavity > 80  degrees                     : 0
    faces with skewness > 4   (internal) or 20  (boundary) : 0
    faces with interpolation weights (0..1)  < 0.05        : 0
    faces with volume ratio of neighbour cells < 0.01      : 0
    faces with face twist < 0.02                           : 0
    faces on cells with determinant < 0.001                : 0
Successfully moved mesh

Smoothing iteration 1
Found 0 non-manifold point(s).

Scaling iteration 0
Moving mesh using displacement scaling : min:1  max:1
Checking faces in error :
    non-orthogonality > 55  degrees                        : 2852
    faces with face pyramid volume < 1e-13                 : 0
    faces with face-decomposition tet quality < 1e-15      : 0
    faces with concavity > 80  degrees                     : 0
    faces with skewness > 4   (internal) or 20  (boundary) : 0
    faces with interpolation weights (0..1)  < 0.05        : 0
    faces with volume ratio of neighbour cells < 0.01      : 0
    faces with face twist < 0.02                           : 0
    faces on cells with determinant < 0.001                : 0
Successfully moved mesh

Smoothing iteration 2
Found 0 non-manifold point(s).

Scaling iteration 0
Moving mesh using displacement scaling : min:1  max:1
Checking faces in error :
    non-orthogonality > 55  degrees                        : 2852
    faces with face pyramid volume < 1e-13                 : 0
    faces with face-decomposition tet quality < 1e-15      : 0
    faces with concavity > 80  degrees                     : 0
    faces with skewness > 4   (internal) or 20  (boundary) : 0
    faces with interpolation weights (0..1)  < 0.05        : 0
    faces with volume ratio of neighbour cells < 0.01      : 0
    faces with face twist < 0.02                           : 0
    faces on cells with determinant < 0.001                : 0
Successfully moved mesh

Smoothing iteration 3
Found 0 non-manifold point(s).

Scaling iteration 0
Moving mesh using displacement scaling : min:1  max:1
Checking faces in error :
    non-orthogonality > 55  degrees                        : 2854
    faces with face pyramid volume < 1e-13                 : 0
    faces with face-decomposition tet quality < 1e-15      : 0
    faces with concavity > 80  degrees                     : 0
    faces with skewness > 4   (internal) or 20  (boundary) : 0
    faces with interpolation weights (0..1)  < 0.05        : 0
    faces with volume ratio of neighbour cells < 0.01      : 0
    faces with face twist < 0.02                           : 0
    faces on cells with determinant < 0.001                : 0

Scaling iteration 1
Moving mesh using displacement scaling : min:0.75  max:1
Checking faces in error :
    non-orthogonality > 55  degrees                        : 2854
    faces with face pyramid volume < 1e-13                 : 0
    faces with face-decomposition tet quality < 1e-15      : 0
    faces with concavity > 80  degrees                     : 0
    faces with skewness > 4   (internal) or 20  (boundary) : 0
    faces with interpolation weights (0..1)  < 0.05        : 0
    faces with volume ratio of neighbour cells < 0.01      : 0
    faces with face twist < 0.02                           : 0
    faces on cells with determinant < 0.001                : 0

Scaling iteration 2
Moving mesh using displacement scaling : min:0.5625  max:1
Checking faces in error :
    non-orthogonality > 55  degrees                        : 2854
    faces with face pyramid volume < 1e-13                 : 0
    faces with face-decomposition tet quality < 1e-15      : 0
    faces with concavity > 80  degrees                     : 0
    faces with skewness > 4   (internal) or 20  (boundary) : 0
    faces with interpolation weights (0..1)  < 0.05        : 0
    faces with volume ratio of neighbour cells < 0.01      : 0
    faces with face twist < 0.02                           : 0
    faces on cells with determinant < 0.001                : 0

Scaling iteration 3
Moving mesh using displacement scaling : min:0.421875  max:1
Checking faces in error :
    non-orthogonality > 55  degrees                        : 2853
    faces with face pyramid volume < 1e-13                 : 0
    faces with face-decomposition tet quality < 1e-15      : 0
    faces with concavity > 80  degrees                     : 0
    faces with skewness > 4   (internal) or 20  (boundary) : 0
    faces with interpolation weights (0..1)  < 0.05        : 0
    faces with volume ratio of neighbour cells < 0.01      : 0
    faces with face twist < 0.02                           : 0
    faces on cells with determinant < 0.001                : 0

Scaling iteration 4
Moving mesh using displacement scaling : min:0.316406  max:1
Checking faces in error :
    non-orthogonality > 55  degrees                        : 2853
    faces with face pyramid volume < 1e-13                 : 0
    faces with face-decomposition tet quality < 1e-15      : 0
    faces with concavity > 80  degrees                     : 0
    faces with skewness > 4   (internal) or 20  (boundary) : 0
    faces with interpolation weights (0..1)  < 0.05        : 0
    faces with volume ratio of neighbour cells < 0.01      : 0
    faces with face twist < 0.02                           : 0
    faces on cells with determinant < 0.001                : 0

Scaling iteration 5
Moving mesh using displacement scaling : min:0.237305  max:1
Checking faces in error :
    non-orthogonality > 55  degrees                        : 2853
    faces with face pyramid volume < 1e-13                 : 0
    faces with face-decomposition tet quality < 1e-15      : 0
    faces with concavity > 80  degrees                     : 0
    faces with skewness > 4   (internal) or 20  (boundary) : 0
    faces with interpolation weights (0..1)  < 0.05        : 0
    faces with volume ratio of neighbour cells < 0.01      : 0
    faces with face twist < 0.02                           : 0
    faces on cells with determinant < 0.001                : 0

Scaling iteration 6
Moving mesh using displacement scaling : min:0.177979  max:1
Checking faces in error :
    non-orthogonality > 55  degrees                        : 2853
    faces with face pyramid volume < 1e-13                 : 0
    faces with face-decomposition tet quality < 1e-15      : 0
    faces with concavity > 80  degrees                     : 0
    faces with skewness > 4   (internal) or 20  (boundary) : 0
    faces with interpolation weights (0..1)  < 0.05        : 0
    faces with volume ratio of neighbour cells < 0.01      : 0
    faces with face twist < 0.02                           : 0
    faces on cells with determinant < 0.001                : 0

Scaling iteration 7
Moving mesh using displacement scaling : min:0.133484  max:1
Checking faces in error :
    non-orthogonality > 55  degrees                        : 2853
    faces with face pyramid volume < 1e-13                 : 0
    faces with face-decomposition tet quality < 1e-15      : 0
    faces with concavity > 80  degrees                     : 0
    faces with skewness > 4   (internal) or 20  (boundary) : 0
    faces with interpolation weights (0..1)  < 0.05        : 0
    faces with volume ratio of neighbour cells < 0.01      : 0
    faces with face twist < 0.02                           : 0
    faces on cells with determinant < 0.001                : 0

Scaling iteration 8
Moving mesh using displacement scaling : min:0.100113  max:1
Checking faces in error :
    non-orthogonality > 55  degrees                        : 2853
    faces with face pyramid volume < 1e-13                 : 0
    faces with face-decomposition tet quality < 1e-15      : 0
    faces with concavity > 80  degrees                     : 0
    faces with skewness > 4   (internal) or 20  (boundary) : 0
    faces with interpolation weights (0..1)  < 0.05        : 0
    faces with volume ratio of neighbour cells < 0.01      : 0
    faces with face twist < 0.02                           : 0
    faces on cells with determinant < 0.001                : 0

Scaling iteration 9
Moving mesh using displacement scaling : min:0.0750847  max:1
Checking faces in error :
    non-orthogonality > 55  degrees                        : 2853
    faces with face pyramid volume < 1e-13                 : 0
    faces with face-decomposition tet quality < 1e-15      : 0
    faces with concavity > 80  degrees                     : 0
    faces with skewness > 4   (internal) or 20  (boundary) : 0
    faces with interpolation weights (0..1)  < 0.05        : 0
    faces with volume ratio of neighbour cells < 0.01      : 0
    faces with face twist < 0.02                           : 0
    faces on cells with determinant < 0.001                : 0

Scaling iteration 10
Displacement scaling for error reduction set to 0.
Moving mesh using displacement scaling : min:0.0563135  max:1
Checking faces in error :
    non-orthogonality > 55  degrees                        : 2853
    faces with face pyramid volume < 1e-13                 : 0
    faces with face-decomposition tet quality < 1e-15      : 0
    faces with concavity > 80  degrees                     : 0
    faces with skewness > 4   (internal) or 20  (boundary) : 0
    faces with interpolation weights (0..1)  < 0.05        : 0
    faces with volume ratio of neighbour cells < 0.01      : 0
    faces with face twist < 0.02                           : 0
    faces on cells with determinant < 0.001                : 0

Scaling iteration 11
Moving mesh using displacement scaling : min:0  max:1
Checking faces in error :
    non-orthogonality > 55  degrees                        : 2852
    faces with face pyramid volume < 1e-13                 : 0
    faces with face-decomposition tet quality < 1e-15      : 0
    faces with concavity > 80  degrees                     : 0
    faces with skewness > 4   (internal) or 20  (boundary) : 0
    faces with interpolation weights (0..1)  < 0.05        : 0
    faces with volume ratio of neighbour cells < 0.01      : 0
    faces with face twist < 0.02                           : 0
    faces on cells with determinant < 0.001                : 0
Successfully moved mesh

Smoothing iteration 4
Found 0 non-manifold point(s).

Scaling iteration 0
Moving mesh using displacement scaling : min:1  max:1
Checking faces in error :
    non-orthogonality > 55  degrees                        : 2856
    faces with face pyramid volume < 1e-13                 : 0
    faces with face-decomposition tet quality < 1e-15      : 0
    faces with concavity > 80  degrees                     : 0
    faces with skewness > 4   (internal) or 20  (boundary) : 0
    faces with interpolation weights (0..1)  < 0.05        : 0
    faces with volume ratio of neighbour cells < 0.01      : 0
    faces with face twist < 0.02                           : 0
    faces on cells with determinant < 0.001                : 0

Scaling iteration 1
Moving mesh using displacement scaling : min:0.75  max:1
Checking faces in error :
    non-orthogonality > 55  degrees                        : 2854
    faces with face pyramid volume < 1e-13                 : 0
    faces with face-decomposition tet quality < 1e-15      : 0
    faces with concavity > 80  degrees                     : 0
    faces with skewness > 4   (internal) or 20  (boundary) : 0
    faces with interpolation weights (0..1)  < 0.05        : 0
    faces with volume ratio of neighbour cells < 0.01      : 0
    faces with face twist < 0.02                           : 0
    faces on cells with determinant < 0.001                : 0

Scaling iteration 2
Moving mesh using displacement scaling : min:0.5625  max:1
Checking faces in error :
    non-orthogonality > 55  degrees                        : 2854
    faces with face pyramid volume < 1e-13                 : 0
    faces with face-decomposition tet quality < 1e-15      : 0
    faces with concavity > 80  degrees                     : 0
    faces with skewness > 4   (internal) or 20  (boundary) : 0
    faces with interpolation weights (0..1)  < 0.05        : 0
    faces with volume ratio of neighbour cells < 0.01      : 0
    faces with face twist < 0.02                           : 0
    faces on cells with determinant < 0.001                : 0

Scaling iteration 3
Moving mesh using displacement scaling : min:0.421875  max:1
Checking faces in error :
    non-orthogonality > 55  degrees                        : 2854
    faces with face pyramid volume < 1e-13                 : 0
    faces with face-decomposition tet quality < 1e-15      : 0
    faces with concavity > 80  degrees                     : 0
    faces with skewness > 4   (internal) or 20  (boundary) : 0
    faces with interpolation weights (0..1)  < 0.05        : 0
    faces with volume ratio of neighbour cells < 0.01      : 0
    faces with face twist < 0.02                           : 0
    faces on cells with determinant < 0.001                : 0

Scaling iteration 4
Moving mesh using displacement scaling : min:0.316406  max:1
Checking faces in error :
    non-orthogonality > 55  degrees                        : 2854
    faces with face pyramid volume < 1e-13                 : 0
    faces with face-decomposition tet quality < 1e-15      : 0
    faces with concavity > 80  degrees                     : 0
    faces with skewness > 4   (internal) or 20  (boundary) : 0
    faces with interpolation weights (0..1)  < 0.05        : 0
    faces with volume ratio of neighbour cells < 0.01      : 0
    faces with face twist < 0.02                           : 0
    faces on cells with determinant < 0.001                : 0

Scaling iteration 5
Moving mesh using displacement scaling : min:0.237305  max:1
Checking faces in error :
    non-orthogonality > 55  degrees                        : 2854
    faces with face pyramid volume < 1e-13                 : 0
    faces with face-decomposition tet quality < 1e-15      : 0
    faces with concavity > 80  degrees                     : 0
    faces with skewness > 4   (internal) or 20  (boundary) : 0
    faces with interpolation weights (0..1)  < 0.05        : 0
    faces with volume ratio of neighbour cells < 0.01      : 0
    faces with face twist < 0.02                           : 0
    faces on cells with determinant < 0.001                : 0

Scaling iteration 6
Moving mesh using displacement scaling : min:0.177979  max:1
Checking faces in error :
    non-orthogonality > 55  degrees                        : 2854
    faces with face pyramid volume < 1e-13                 : 0
    faces with face-decomposition tet quality < 1e-15      : 0
    faces with concavity > 80  degrees                     : 0
    faces with skewness > 4   (internal) or 20  (boundary) : 0
    faces with interpolation weights (0..1)  < 0.05        : 0
    faces with volume ratio of neighbour cells < 0.01      : 0
    faces with face twist < 0.02                           : 0
    faces on cells with determinant < 0.001                : 0

Scaling iteration 7
Moving mesh using displacement scaling : min:0.133484  max:1
Checking faces in error :
    non-orthogonality > 55  degrees                        : 2854
    faces with face pyramid volume < 1e-13                 : 0
    faces with face-decomposition tet quality < 1e-15      : 0
    faces with concavity > 80  degrees                     : 0
    faces with skewness > 4   (internal) or 20  (boundary) : 0
    faces with interpolation weights (0..1)  < 0.05        : 0
    faces with volume ratio of neighbour cells < 0.01      : 0
    faces with face twist < 0.02                           : 0
    faces on cells with determinant < 0.001                : 0

Scaling iteration 8
Moving mesh using displacement scaling : min:0.100113  max:1
Checking faces in error :
    non-orthogonality > 55  degrees                        : 2854
    faces with face pyramid volume < 1e-13                 : 0
    faces with face-decomposition tet quality < 1e-15      : 0
    faces with concavity > 80  degrees                     : 0
    faces with skewness > 4   (internal) or 20  (boundary) : 0
    faces with interpolation weights (0..1)  < 0.05        : 0
    faces with volume ratio of neighbour cells < 0.01      : 0
    faces with face twist < 0.02                           : 0
    faces on cells with determinant < 0.001                : 0

Scaling iteration 9
Moving mesh using displacement scaling : min:0.0750847  max:1
Checking faces in error :
    non-orthogonality > 55  degrees                        : 2854
    faces with face pyramid volume < 1e-13                 : 0
    faces with face-decomposition tet quality < 1e-15      : 0
    faces with concavity > 80  degrees                     : 0
    faces with skewness > 4   (internal) or 20  (boundary) : 0
    faces with interpolation weights (0..1)  < 0.05        : 0
    faces with volume ratio of neighbour cells < 0.01      : 0
    faces with face twist < 0.02                           : 0
    faces on cells with determinant < 0.001                : 0

Scaling iteration 10
Displacement scaling for error reduction set to 0.
Moving mesh using displacement scaling : min:0.0563135  max:1
Checking faces in error :
    non-orthogonality > 55  degrees                        : 2854
    faces with face pyramid volume < 1e-13                 : 0
    faces with face-decomposition tet quality < 1e-15      : 0
    faces with concavity > 80  degrees                     : 0
    faces with skewness > 4   (internal) or 20  (boundary) : 0
    faces with interpolation weights (0..1)  < 0.05        : 0
    faces with volume ratio of neighbour cells < 0.01      : 0
    faces with face twist < 0.02                           : 0
    faces on cells with determinant < 0.001                : 0

Scaling iteration 11
Moving mesh using displacement scaling : min:0  max:1
Checking faces in error :
    non-orthogonality > 55  degrees                        : 2852
    faces with face pyramid volume < 1e-13                 : 0
    faces with face-decomposition tet quality < 1e-15      : 0
    faces with concavity > 80  degrees                     : 0
    faces with skewness > 4   (internal) or 20  (boundary) : 0
    faces with interpolation weights (0..1)  < 0.05        : 0
    faces with volume ratio of neighbour cells < 0.01      : 0
    faces with face twist < 0.02                           : 0
    faces on cells with determinant < 0.001                : 0
Successfully moved mesh

Patch points smoothed in = 8.78 s



Morph iteration 0
-----------------
Calculating patchDisplacement as distance to nearest surface point ...
    non-zone points : attract to nearest of all non-zone surfaces
    zone points     : attract to zone surface only

--> FOAM Warning : 
    From static Foam::vectorField Foam::snappySnapDriver::calcNearestSurface(bool, const Foam::meshRefinement&, const labelList&, const labelList&, const scalarField&, const indirectPrimitivePatch&, Foam::pointField&, Foam::vectorField&)
    in file snappyHexMeshDriver/snappySnapDriver.C at line 2058
    For point:7201 coordinate:(-120.857 2.81765 0.929316) did not find any surface within:0.720111 metre.
--> FOAM Warning : 
    From static Foam::vectorField Foam::snappySnapDriver::calcNearestSurface(bool, const Foam::meshRefinement&, const labelList&, const labelList&, const scalarField&, const indirectPrimitivePatch&, Foam::pointField&, Foam::vectorField&)
    in file snappyHexMeshDriver/snappySnapDriver.C at line 2058
    For point:7202 coordinate:(-120.862 2.81763 1.38241) did not find any surface within:0.720111 metre.
--> FOAM Warning : 
    From static Foam::vectorField Foam::snappySnapDriver::calcNearestSurface(bool, const Foam::meshRefinement&, const labelList&, const labelList&, const scalarField&, const indirectPrimitivePatch&, Foam::pointField&, Foam::vectorField&)
    in file snappyHexMeshDriver/snappySnapDriver.C at line 2058
    For point:7203 coordinate:(-120.835 2.34988 1.38265) did not find any surface within:0.711575 metre.
--> FOAM Warning : 
    From static Foam::vectorField Foam::snappySnapDriver::calcNearestSurface(bool, const Foam::meshRefinement&, const labelList&, const labelList&, const scalarField&, const indirectPrimitivePatch&, Foam::pointField&, Foam::vectorField&)
    in file snappyHexMeshDriver/snappySnapDriver.C at line 2058
    For point:7204 coordinate:(-120.83 2.35003 0.929594) did not find any surface within:0.711575 metre.
--> FOAM Warning : 
    From static Foam::vectorField Foam::snappySnapDriver::calcNearestSurface(bool, const Foam::meshRefinement&, const labelList&, const labelList&, const scalarField&, const indirectPrimitivePatch&, Foam::pointField&, Foam::vectorField&)
    in file snappyHexMeshDriver/snappySnapDriver.C at line 2058
    For point:7205 coordinate:(-120.736 1.90429 1.82659) did not find any surface within:0.711575 metre.
--> FOAM Warning : 
    From static Foam::vectorField Foam::snappySnapDriver::calcNearestSurface(bool, const Foam::meshRefinement&, const labelList&, const labelList&, const scalarField&, const indirectPrimitivePatch&, Foam::pointField&, Foam::vectorField&)
    in file snappyHexMeshDriver/snappySnapDriver.C at line 2058
    For point:7206 coordinate:(-120.735 1.90436 1.38373) did not find any surface within:0.711575 metre.
--> FOAM Warning : 
    From static Foam::vectorField Foam::snappySnapDriver::calcNearestSurface(bool, const Foam::meshRefinement&, const labelList&, const labelList&, const scalarField&, const indirectPrimitivePatch&, Foam::pointField&, Foam::vectorField&)
    in file snappyHexMeshDriver/snappySnapDriver.C at line 2058
    For point:7207 coordinate:(-120.836 2.34985 1.82553) did not find any surface within:0.711575 metre.
--> FOAM Warning : 
    From static Foam::vectorField Foam::snappySnapDriver::calcNearestSurface(bool, const Foam::meshRefinement&, const labelList&, const labelList&, const scalarField&, const indirectPrimitivePatch&, Foam::pointField&, Foam::vectorField&)
    in file snappyHexMeshDriver/snappySnapDriver.C at line 2058
    For point:7208 coordinate:(-120.863 2.81762 1.82531) did not find any surface within:0.720111 metre.
--> FOAM Warning : 
    From static Foam::vectorField Foam::snappySnapDriver::calcNearestSurface(bool, const Foam::meshRefinement&, const labelList&, const labelList&, const scalarField&, const indirectPrimitivePatch&, Foam::pointField&, Foam::vectorField&)
    in file snappyHexMeshDriver/snappySnapDriver.C at line 2058
    For point:7209 coordinate:(-120.862 3.77635 0.929272) did not find any surface within:0.72875 metre.
--> FOAM Warning : 
    From static Foam::vectorField Foam::snappySnapDriver::calcNearestSurface(bool, const Foam::meshRefinement&, const labelList&, const labelList&, const scalarField&, const indirectPrimitivePatch&, Foam::pointField&, Foam::vectorField&)
    in file snappyHexMeshDriver/snappySnapDriver.C at line 2058
    For point:7210 coordinate:(-120.867 3.77635 1.38238) did not find any surface within:0.72875 metre.
--> FOAM Warning : 
    From static Foam::vectorField Foam::snappySnapDriver::calcNearestSurface(bool, const Foam::meshRefinement&, const labelList&, const labelList&, const scalarField&, const indirectPrimitivePatch&, Foam::pointField&, Foam::vectorField&)
    in file snappyHexMeshDriver/snappySnapDriver.C at line 2058
    For point:7211 coordinate:(-120.867 3.29496 1.38238) did not find any surface within:0.720111 metre.
--> FOAM Warning : 
    From static Foam::vectorField Foam::snappySnapDriver::calcNearestSurface(bool, const Foam::meshRefinement&, const labelList&, const labelList&, const scalarField&, const indirectPrimitivePatch&, Foam::pointField&, Foam::vectorField&)
    in file snappyHexMeshDriver/snappySnapDriver.C at line 2058
    For point:7212 coordinate:(-120.862 3.29497 0.929275) did not find any surface within:0.720111 metre.
--> FOAM Warning : 
    From static Foam::vectorField Foam::snappySnapDriver::calcNearestSurface(bool, const Foam::meshRefinement&, const labelList&, const labelList&, const scalarField&, const indirectPrimitivePatch&, Foam::pointField&, Foam::vectorField&)
    in file snappyHexMeshDriver/snappySnapDriver.C at line 2058
    For point:7213 coordinate:(-120.868 3.29496 1.82528) did not find any surface within:0.720111 metre.
--> FOAM Warning : 
    From static Foam::vectorField Foam::snappySnapDriver::calcNearestSurface(bool, const Foam::meshRefinement&, const labelList&, const labelList&, const scalarField&, const indirectPrimitivePatch&, Foam::pointField&, Foam::vectorField&)
    in file snappyHexMeshDriver/snappySnapDriver.C at line 2058
    For point:7214 coordinate:(-120.868 3.77635 1.82528) did not find any surface within:0.72875 metre.
--> FOAM Warning : 
    From static Foam::vectorField Foam::snappySnapDriver::calcNearestSurface(bool, const Foam::meshRefinement&, const labelList&, const labelList&, const scalarField&, const indirectPrimitivePatch&, Foam::pointField&, Foam::vectorField&)
    in file snappyHexMeshDriver/snappySnapDriver.C at line 2058
    For point:7215 coordinate:(-120.862 4.74806 0.929272) did not find any surface within:0.737493 metre.
--> FOAM Warning : 
    From static Foam::vectorField Foam::snappySnapDriver::calcNearestSurface(bool, const Foam::meshRefinement&, const labelList&, const labelList&, const scalarField&, const indirectPrimitivePatch&, Foam::pointField&, Foam::vectorField&)
    in file snappyHexMeshDriver/snappySnapDriver.C at line 2058
    For point:7216 coordinate:(-120.867 4.74806 1.38238) did not find any surface within:0.737493 metre.
--> FOAM Warning : 
    From static Foam::vectorField Foam::snappySnapDriver::calcNearestSurface(bool, const Foam::meshRefinement&, const labelList&, const labelList&, const scalarField&, const indirectPrimitivePatch&, Foam::pointField&, Foam::vectorField&)
    in file snappyHexMeshDriver/snappySnapDriver.C at line 2058
    For point:7217 coordinate:(-120.867 4.2608 1.38238) did not find any surface within:0.72875 metre.
--> FOAM Warning : 
    From static Foam::vectorField Foam::snappySnapDriver::calcNearestSurface(bool, const Foam::meshRefinement&, const labelList&, const labelList&, const scalarField&, const indirectPrimitivePatch&, Foam::pointField&, Foam::vectorField&)
    in file snappyHexMeshDriver/snappySnapDriver.C at line 2058
    For point:7218 coordinate:(-120.862 4.2608 0.929272) did not find any surface within:0.72875 metre.
--> FOAM Warning : 
    From static Foam::vectorField Foam::snappySnapDriver::calcNearestSurface(bool, const Foam::meshRefinement&, const labelList&, const labelList&, const scalarField&, const indirectPrimitivePatch&, Foam::pointField&, Foam::vectorField&)
    in file snappyHexMeshDriver/snappySnapDriver.C at line 2058
    For point:7219 coordinate:(-120.868 4.2608 1.82528) did not find any surface within:0.72875 metre.
--> FOAM Warning : 
    From static Foam::vectorField Foam::snappySnapDriver::calcNearestSurface(bool, const Foam::meshRefinement&, const labelList&, const labelList&, const scalarField&, const indirectPrimitivePatch&, Foam::pointField&, Foam::vectorField&)
    in file snappyHexMeshDriver/snappySnapDriver.C at line 2058
    For point:7220 coordinate:(-120.868 4.74806 1.82528) did not find any surface within:0.737493 metre.
--> FOAM Warning : 
    From static Foam::vectorField Foam::snappySnapDriver::calcNearestSurface(bool, const Foam::meshRefinement&, const labelList&, const labelList&, const scalarField&, const indirectPrimitivePatch&, Foam::pointField&, Foam::vectorField&)
    in file snappyHexMeshDriver/snappySnapDriver.C at line 2058
    For point:7221 coordinate:(-120.862 5.73143 0.929272) did not find any surface within:0.746341 metre.
--> FOAM Warning : 
    From static Foam::vectorField Foam::snappySnapDriver::calcNearestSurface(bool, const Foam::meshRefinement&, const labelList&, const labelList&, const scalarField&, const indirectPrimitivePatch&, Foam::pointField&, Foam::vectorField&)
    in file snappyHexMeshDriver/snappySnapDriver.C at line 2058
    For point:7222 coordinate:(-120.867 5.73143 1.38238) did not find any surface within:0.746341 metre.
--> FOAM Warning : 
    From static Foam::vectorField Foam::snappySnapDriver::calcNearestSurface(bool, const Foam::meshRefinement&, const labelList&, const labelList&, const scalarField&, const indirectPrimitivePatch&, Foam::pointField&, Foam::vectorField&)
    in file snappyHexMeshDriver/snappySnapDriver.C at line 2058
    For point:7223 coordinate:(-120.867 5.23832 1.38238) did not find any surface within:0.737493 metre.
--> FOAM Warning : 
    From static Foam::vectorField Foam::snappySnapDriver::calcNearestSurface(bool, const Foam::meshRefinement&, const labelList&, const labelList&, const scalarField&, const indirectPrimitivePatch&, Foam::pointField&, Foam::vectorField&)
    in file snappyHexMeshDriver/snappySnapDriver.C at line 2058
    For point:7224 coordinate:(-120.862 5.23832 0.929272) did not find any surface within:0.737493 metre.
--> FOAM Warning : 
    From static Foam::vectorField Foam::snappySnapDriver::calcNearestSurface(bool, const Foam::meshRefinement&, const labelList&, const labelList&, const scalarField&, const indirectPrimitivePatch&, Foam::pointField&, Foam::vectorField&)
    in file snappyHexMeshDriver/snappySnapDriver.C at line 2058
    For point:7225 coordinate:(-120.868 5.23832 1.82528) did not find any surface within:0.737493 metre.
--> FOAM Warning : 
    From static Foam::vectorField Foam::snappySnapDriver::calcNearestSurface(bool, const Foam::meshRefinement&, const labelList&, const labelList&, const scalarField&, const indirectPrimitivePatch&, Foam::pointField&, Foam::vectorField&)
    in file snappyHexMeshDriver/snappySnapDriver.C at line 2058
    For point:7226 coordinate:(-120.868 5.73143 1.82528) did not find any surface within:0.746341 metre.
--> FOAM Warning : 
    From static Foam::vectorField Foam::snappySnapDriver::calcNearestSurface(bool, const Foam::meshRefinement&, const labelList&, const labelList&, const scalarField&, const indirectPrimitivePatch&, Foam::pointField&, Foam::vectorField&)
    in file snappyHexMeshDriver/snappySnapDriver.C at line 2058
    For point:7227 coordinate:(-120.862 6.7266 0.929272) did not find any surface within:0.755294 metre.
--> FOAM Warning : 
    From static Foam::vectorField Foam::snappySnapDriver::calcNearestSurface(bool, const Foam::meshRefinement&, const labelList&, const labelList&, const scalarField&, const indirectPrimitivePatch&, Foam::pointField&, Foam::vectorField&)
    in file snappyHexMeshDriver/snappySnapDriver.C at line 2058
    For point:7228 coordinate:(-120.867 6.72659 1.38238) did not find any surface within:0.755294 metre.
--> FOAM Warning : 
    From static Foam::vectorField Foam::snappySnapDriver::calcNearestSurface(bool, const Foam::meshRefinement&, const labelList&, const labelList&, const scalarField&, const indirectPrimitivePatch&, Foam::pointField&, Foam::vectorField&)
    in file snappyHexMeshDriver/snappySnapDriver.C at line 2058
    For point:7229 coordinate:(-120.867 6.22757 1.38238) did not find any surface within:0.746341 metre.
--> FOAM Warning : 
    From static Foam::vectorField Foam::snappySnapDriver::calcNearestSurface(bool, const Foam::meshRefinement&, const labelList&, const labelList&, const scalarField&, const indirectPrimitivePatch&, Foam::pointField&, Foam::vectorField&)
    in file snappyHexMeshDriver/snappySnapDriver.C at line 2058
    For point:7230 coordinate:(-120.862 6.22757 0.929272) did not find any surface within:0.746341 metre.
--> FOAM Warning : 
    From static Foam::vectorField Foam::snappySnapDriver::calcNearestSurface(bool, const Foam::meshRefinement&, const labelList&, const labelList&, const scalarField&, const indirectPrimitivePatch&, Foam::pointField&, Foam::vectorField&)
    in file snappyHexMeshDriver/snappySnapDriver.C at line 2058
    For point:7231 coordinate:(-120.868 6.22757 1.82528) did not find any surface within:0.746341 metre.
--> FOAM Warning : 
    From static Foam::vectorField Foam::snappySnapDriver::calcNearestSurface(bool, const Foam::meshRefinement&, const labelList&, const labelList&, const scalarField&, const indirectPrimitivePatch&, Foam::pointField&, Foam::vectorField&)
    in file snappyHexMeshDriver/snappySnapDriver.C at line 2058
    For point:7232 coordinate:(-120.868 6.72659 1.82528) did not find any surface within:0.755294 metre.
--> FOAM Warning : 
    From static Foam::vectorField Foam::snappySnapDriver::calcNearestSurface(bool, const Foam::meshRefinement&, const labelList&, const labelList&, const scalarField&, const indirectPrimitivePatch&, Foam::pointField&, Foam::vectorField&)
    in file snappyHexMeshDriver/snappySnapDriver.C at line 2058
    For point:7233 coordinate:(-120.862 7.7337 0.929272) did not find any surface within:0.764356 metre.
--> FOAM Warning : 
    From static Foam::vectorField Foam::snappySnapDriver::calcNearestSurface(bool, const Foam::meshRefinement&, const labelList&, const labelList&, const scalarField&, const indirectPrimitivePatch&, Foam::pointField&, Foam::vectorField&)
    in file snappyHexMeshDriver/snappySnapDriver.C at line 2058
    For point:7234 coordinate:(-120.867 7.7337 1.38238) did not find any surface within:0.764356 metre.
--> FOAM Warning : 
    From static Foam::vectorField Foam::snappySnapDriver::calcNearestSurface(bool, const Foam::meshRefinement&, const labelList&, const labelList&, const scalarField&, const indirectPrimitivePatch&, Foam::pointField&, Foam::vectorField&)
    in file snappyHexMeshDriver/snappySnapDriver.C at line 2058
    For point:7235 coordinate:(-120.867 7.22868 1.38238) did not find any surface within:0.755294 metre.
--> FOAM Warning : 
    From static Foam::vectorField Foam::snappySnapDriver::calcNearestSurface(bool, const Foam::meshRefinement&, const labelList&, const labelList&, const scalarField&, const indirectPrimitivePatch&, Foam::pointField&, Foam::vectorField&)
    in file snappyHexMeshDriver/snappySnapDriver.C at line 2058
    For point:7236 coordinate:(-120.862 7.22868 0.929272) did not find any surface within:0.755294 metre.
--> FOAM Warning : 
    From static Foam::vectorField Foam::snappySnapDriver::calcNearestSurface(bool, const Foam::meshRefinement&, const labelList&, const labelList&, const scalarField&, const indirectPrimitivePatch&, Foam::pointField&, Foam::vectorField&)
    in file snappyHexMeshDriver/snappySnapDriver.C at line 2058
    For point:7237 coordinate:(-120.868 7.22868 1.82528) did not find any surface within:0.755294 metre.
--> FOAM Warning : 
    From static Foam::vectorField Foam::snappySnapDriver::calcNearestSurface(bool, const Foam::meshRefinement&, const labelList&, const labelList&, const scalarField&, const indirectPrimitivePatch&, Foam::pointField&, Foam::vectorField&)
    in file snappyHexMeshDriver/snappySnapDriver.C at line 2058
    For point:7238 coordinate:(-120.868 7.7337 1.82528) did not find any surface within:0.764356 metre.
--> FOAM Warning : 
    From static Foam::vectorField Foam::snappySnapDriver::calcNearestSurface(bool, const Foam::meshRefinement&, const labelList&, const labelList&, const scalarField&, const indirectPrimitivePatch&, Foam::pointField&, Foam::vectorField&)
    in file snappyHexMeshDriver/snappySnapDriver.C at line 2058
    For point:7239 coordinate:(-120.862 8.75288 0.929272) did not find any surface within:0.773525 metre.
--> FOAM Warning : 
    From static Foam::vectorField Foam::snappySnapDriver::calcNearestSurface(bool, const Foam::meshRefinement&, const labelList&, const labelList&, const scalarField&, const indirectPrimitivePatch&, Foam::pointField&, Foam::vectorField&)
    in file snappyHexMeshDriver/snappySnapDriver.C at line 2058
    For point:7240 coordinate:(-120.867 8.75288 1.38238) did not find any surface within:0.773525 metre.
--> FOAM Warning : 
    From static Foam::vectorField Foam::snappySnapDriver::calcNearestSurface(bool, const Foam::meshRefinement&, const labelList&, const labelList&, const scalarField&, const indirectPrimitivePatch&, Foam::pointField&, Foam::vectorField&)
    in file snappyHexMeshDriver/snappySnapDriver.C at line 2058
    For point:7241 coordinate:(-120.867 8.24181 1.38238) did not find any surface within:0.764356 metre.
--> FOAM Warning : 
    From static Foam::vectorField Foam::snappySnapDriver::calcNearestSurface(bool, const Foam::meshRefinement&, const labelList&, const labelList&, const scalarField&, const indirectPrimitivePatch&, Foam::pointField&, Foam::vectorField&)
    in file snappyHexMeshDriver/snappySnapDriver.C at line 2058
    For point:7242 coordinate:(-120.862 8.24181 0.929272) did not find any surface within:0.764356 metre.
--> FOAM Warning : 
    From static Foam::vectorField Foam::snappySnapDriver::calcNearestSurface(bool, const Foam::meshRefinement&, const labelList&, const labelList&, const scalarField&, const indirectPrimitivePatch&, Foam::pointField&, Foam::vectorField&)
    in file snappyHexMeshDriver/snappySnapDriver.C at line 2058
    For point:7243 coordinate:(-120.868 8.24181 1.82528) did not find any surface within:0.764356 metre.
--> FOAM Warning : 
    From static Foam::vectorField Foam::snappySnapDriver::calcNearestSurface(bool, const Foam::meshRefinement&, const labelList&, const labelList&, const scalarField&, const indirectPrimitivePatch&, Foam::pointField&, Foam::vectorField&)
    in file snappyHexMeshDriver/snappySnapDriver.C at line 2058
    For point:7244 coordinate:(-120.868 8.75288 1.82528) did not find any surface within:0.773525 metre.
--> FOAM Warning : 
    From static Foam::vectorField Foam::snappySnapDriver::calcNearestSurface(bool, const Foam::meshRefinement&, const labelList&, const labelList&, const scalarField&, const indirectPrimitivePatch&, Foam::pointField&, Foam::vectorField&)
    in file snappyHexMeshDriver/snappySnapDriver.C at line 2058
    For point:7245 coordinate:(-120.862 9.7843 0.929272) did not find any surface within:0.782805 metre.
--> FOAM Warning : 
    From static Foam::vectorField Foam::snappySnapDriver::calcNearestSurface(bool, const Foam::meshRefinement&, const labelList&, const labelList&, const scalarField&, const indirectPrimitivePatch&, Foam::pointField&, Foam::vectorField&)
    in file snappyHexMeshDriver/snappySnapDriver.C at line 2058
    For point:7246 coordinate:(-120.867 9.78429 1.38238) did not find any surface within:0.782805 metre.
--> FOAM Warning : 
    From static Foam::vectorField Foam::snappySnapDriver::calcNearestSurface(bool, const Foam::meshRefinement&, const labelList&, const labelList&, const scalarField&, const indirectPrimitivePatch&, Foam::pointField&, Foam::vectorField&)
    in file snappyHexMeshDriver/snappySnapDriver.C at line 2058
    For point:7247 coordinate:(-120.867 9.26709 1.38238) did not find any surface within:0.773525 metre.
--> FOAM Warning : 
    From static Foam::vectorField Foam::snappySnapDriver::calcNearestSurface(bool, const Foam::meshRefinement&, const labelList&, const labelList&, const scalarField&, const indirectPrimitivePatch&, Foam::pointField&, Foam::vectorField&)
    in file snappyHexMeshDriver/snappySnapDriver.C at line 2058
    For point:7248 coordinate:(-120.862 9.26709 0.929272) did not find any surface within:0.773525 metre.
--> FOAM Warning : 
    From static Foam::vectorField Foam::snappySnapDriver::calcNearestSurface(bool, const Foam::meshRefinement&, const labelList&, const labelList&, const scalarField&, const indirectPrimitivePatch&, Foam::pointField&, Foam::vectorField&)
    in file snappyHexMeshDriver/snappySnapDriver.C at line 2058
    For point:7249 coordinate:(-120.868 9.26709 1.82528) did not find any surface within:0.773525 metre.
--> FOAM Warning : 
    From static Foam::vectorField Foam::snappySnapDriver::calcNearestSurface(bool, const Foam::meshRefinement&, const labelList&, const labelList&, const scalarField&, const indirectPrimitivePatch&, Foam::pointField&, Foam::vectorField&)
    in file snappyHexMeshDriver/snappySnapDriver.C at line 2058
    For point:7250 coordinate:(-120.868 9.78429 1.82528) did not find any surface within:0.782805 metre.
--> FOAM Warning : 
    From static Foam::vectorField Foam::snappySnapDriver::calcNearestSurface(bool, const Foam::meshRefinement&, const labelList&, const labelList&, const scalarField&, const indirectPrimitivePatch&, Foam::pointField&, Foam::vectorField&)
    in file snappyHexMeshDriver/snappySnapDriver.C at line 2058
    For point:7251 coordinate:(-120.862 10.8281 0.929272) did not find any surface within:0.792196 metre.
--> FOAM Warning : 
    From static Foam::vectorField Foam::snappySnapDriver::calcNearestSurface(bool, const Foam::meshRefinement&, const labelList&, const labelList&, const scalarField&, const indirectPrimitivePatch&, Foam::pointField&, Foam::vectorField&)
    in file snappyHexMeshDriver/snappySnapDriver.C at line 2058
    For point:7252 coordinate:(-120.867 10.8281 1.38238) did not find any surface within:0.792196 metre.
--> FOAM Warning : 
    From static Foam::vectorField Foam::snappySnapDriver::calcNearestSurface(bool, const Foam::meshRefinement&, const labelList&, const labelList&, const scalarField&, const indirectPrimitivePatch&, Foam::pointField&, Foam::vectorField&)
    in file snappyHexMeshDriver/snappySnapDriver.C at line 2058
    For point:7253 coordinate:(-120.867 10.3047 1.38238) did not find any surface within:0.782805 metre.
--> FOAM Warning : 
    From static Foam::vectorField Foam::snappySnapDriver::calcNearestSurface(bool, const Foam::meshRefinement&, const labelList&, const labelList&, const scalarField&, const indirectPrimitivePatch&, Foam::pointField&, Foam::vectorField&)
    in file snappyHexMeshDriver/snappySnapDriver.C at line 2058
    For point:7254 coordinate:(-120.862 10.3047 0.929272) did not find any surface within:0.782805 metre.
--> FOAM Warning : 
    From static Foam::vectorField Foam::snappySnapDriver::calcNearestSurface(bool, const Foam::meshRefinement&, const labelList&, const labelList&, const scalarField&, const indirectPrimitivePatch&, Foam::pointField&, Foam::vectorField&)
    in file snappyHexMeshDriver/snappySnapDriver.C at line 2058
    For point:7255 coordinate:(-120.868 10.3047 1.82528) did not find any surface within:0.782805 metre.
--> FOAM Warning : 
    From static Foam::vectorField Foam::snappySnapDriver::calcNearestSurface(bool, const Foam::meshRefinement&, const labelList&, const labelList&, const scalarField&, const indirectPrimitivePatch&, Foam::pointField&, Foam::vectorField&)
    in file snappyHexMeshDriver/snappySnapDriver.C at line 2058
    For point:7256 coordinate:(-120.868 10.8281 1.82528) did not find any surface within:0.792196 metre.
--> FOAM Warning : 
    From static Foam::vectorField Foam::snappySnapDriver::calcNearestSurface(bool, const Foam::meshRefinement&, const labelList&, const labelList&, const scalarField&, const indirectPrimitivePatch&, Foam::pointField&, Foam::vectorField&)
    in file snappyHexMeshDriver/snappySnapDriver.C at line 2058
    For point:7257 coordinate:(-120.862 11.8844 0.929272) did not find any surface within:0.8017 metre.
--> FOAM Warning : 
    From static Foam::vectorField Foam::snappySnapDriver::calcNearestSurface(bool, const Foam::meshRefinement&, const labelList&, const labelList&, const scalarField&, const indirectPrimitivePatch&, Foam::pointField&, Foam::vectorField&)
    in file snappyHexMeshDriver/snappySnapDriver.C at line 2058
    For point:7258 coordinate:(-120.867 11.8844 1.38238) did not find any surface within:0.8017 metre.
--> FOAM Warning : 
    From static Foam::vectorField Foam::snappySnapDriver::calcNearestSurface(bool, const Foam::meshRefinement&, const labelList&, const labelList&, const scalarField&, const indirectPrimitivePatch&, Foam::pointField&, Foam::vectorField&)
    in file snappyHexMeshDriver/snappySnapDriver.C at line 2058
    For point:7259 coordinate:(-120.867 11.3547 1.38238) did not find any surface within:0.792196 metre.
--> FOAM Warning : 
    From static Foam::vectorField Foam::snappySnapDriver::calcNearestSurface(bool, const Foam::meshRefinement&, const labelList&, const labelList&, const scalarField&, const indirectPrimitivePatch&, Foam::pointField&, Foam::vectorField&)
    in file snappyHexMeshDriver/snappySnapDriver.C at line 2058
    For point:7260 coordinate:(-120.862 11.3547 0.929272) did not find any surface within:0.792196 metre.
--> FOAM Warning : 
    From static Foam::vectorField Foam::snappySnapDriver::calcNearestSurface(bool, const Foam::meshRefinement&, const labelList&, const labelList&, const scalarField&, const indirectPrimitivePatch&, Foam::pointField&, Foam::vectorField&)
    in file snappyHexMeshDriver/snappySnapDriver.C at line 2058
    For point:7261 coordinate:(-120.868 11.3547 1.82528) did not find any surface within:0.792196 metre.
--> FOAM Warning : 
    From static Foam::vectorField Foam::snappySnapDriver::calcNearestSurface(bool, const Foam::meshRefinement&, const labelList&, const labelList&, const scalarField&, const indirectPrimitivePatch&, Foam::pointField&, Foam::vectorField&)
    in file snappyHexMeshDriver/snappySnapDriver.C at line 2058
    For point:7262 coordinate:(-120.868 11.8844 1.82528) did not find any surface within:0.8017 metre.
--> FOAM Warning : 
    From static Foam::vectorField Foam::snappySnapDriver::calcNearestSurface(bool, const Foam::meshRefinement&, const labelList&, const labelList&, const scalarField&, const indirectPrimitivePatch&, Foam::pointField&, Foam::vectorField&)
    in file snappyHexMeshDriver/snappySnapDriver.C at line 2058
    For point:7263 coordinate:(-120.862 12.9534 0.929272) did not find any surface within:0.811318 metre.
--> FOAM Warning : 
    From static Foam::vectorField Foam::snappySnapDriver::calcNearestSurface(bool, const Foam::meshRefinement&, const labelList&, const labelList&, const scalarField&, const indirectPrimitivePatch&, Foam::pointField&, Foam::vectorField&)
    in file snappyHexMeshDriver/snappySnapDriver.C at line 2058
    For point:7264 coordinate:(-120.867 12.9534 1.38238) did not find any surface within:0.811318 metre.
--> FOAM Warning : 
    From static Foam::vectorField Foam::snappySnapDriver::calcNearestSurface(bool, const Foam::meshRefinement&, const labelList&, const labelList&, const scalarField&, const indirectPrimitivePatch&, Foam::pointField&, Foam::vectorField&)
    in file snappyHexMeshDriver/snappySnapDriver.C at line 2058
    For point:7265 coordinate:(-120.867 12.4173 1.38238) did not find any surface within:0.8017 metre.
--> FOAM Warning : 
    From static Foam::vectorField Foam::snappySnapDriver::calcNearestSurface(bool, const Foam::meshRefinement&, const labelList&, const labelList&, const scalarField&, const indirectPrimitivePatch&, Foam::pointField&, Foam::vectorField&)
    in file snappyHexMeshDriver/snappySnapDriver.C at line 2058
    For point:7266 coordinate:(-120.862 12.4173 0.929272) did not find any surface within:0.8017 metre.
--> FOAM Warning : 
    From static Foam::vectorField Foam::snappySnapDriver::calcNearestSurface(bool, const Foam::meshRefinement&, const labelList&, const labelList&, const scalarField&, const indirectPrimitivePatch&, Foam::pointField&, Foam::vectorField&)
    in file snappyHexMeshDriver/snappySnapDriver.C at line 2058
    For point:7267 coordinate:(-120.868 12.4173 1.82528) did not find any surface within:0.8017 metre.
--> FOAM Warning : 
    From static Foam::vectorField Foam::snappySnapDriver::calcNearestSurface(bool, const Foam::meshRefinement&, const labelList&, const labelList&, const scalarField&, const indirectPrimitivePatch&, Foam::pointField&, Foam::vectorField&)
    in file snappyHexMeshDriver/snappySnapDriver.C at line 2058
    For point:7268 coordinate:(-120.868 12.9534 1.82528) did not find any surface within:0.811318 metre.
--> FOAM Warning : 
    From static Foam::vectorField Foam::snappySnapDriver::calcNearestSurface(bool, const Foam::meshRefinement&, const labelList&, const labelList&, const scalarField&, const indirectPrimitivePatch&, Foam::pointField&, Foam::vectorField&)
    in file snappyHexMeshDriver/snappySnapDriver.C at line 2058
    For point:7269 coordinate:(-120.862 14.0352 0.929272) did not find any surface within:0.821051 metre.
--> FOAM Warning : 
    From static Foam::vectorField Foam::snappySnapDriver::calcNearestSurface(bool, const Foam::meshRefinement&, const labelList&, const labelList&, const scalarField&, const indirectPrimitivePatch&, Foam::pointField&, Foam::vectorField&)
    in file snappyHexMeshDriver/snappySnapDriver.C at line 2058
    For point:7270 coordinate:(-120.867 14.0352 1.38238) did not find any surface within:0.821051 metre.
--> FOAM Warning : 
    From static Foam::vectorField Foam::snappySnapDriver::calcNearestSurface(bool, const Foam::meshRefinement&, const labelList&, const labelList&, const scalarField&, const indirectPrimitivePatch&, Foam::pointField&, Foam::vectorField&)
    in file snappyHexMeshDriver/snappySnapDriver.C at line 2058
    For point:7271 coordinate:(-120.867 13.4927 1.38238) did not find any surface within:0.811318 metre.
--> FOAM Warning : 
[...]
    faces with interpolation weights (0..1)  < 0.05        : 0
    faces with volume ratio of neighbour cells < 0.01      : 0
    faces with face twist < 0.02                           : 35
    faces on cells with determinant < 0.001                : 0

Iteration 10
Displacement scaling for error reduction set to 0.
Moving mesh using displacement scaling : min:0.0563135  max:1
Checking faces in error :
    non-orthogonality > 55  degrees                        : 2899
    faces with face pyramid volume < 1e-13                 : 0
    faces with face-decomposition tet quality < 1e-15      : 2
    faces with concavity > 80  degrees                     : 0
    faces with skewness > 4   (internal) or 20  (boundary) : 0
    faces with interpolation weights (0..1)  < 0.05        : 0
    faces with volume ratio of neighbour cells < 0.01      : 0
    faces with face twist < 0.02                           : 35
    faces on cells with determinant < 0.001                : 0

Iteration 11
Moving mesh using displacement scaling : min:0  max:1
Checking faces in error :
    non-orthogonality > 55  degrees                        : 2899
    faces with face pyramid volume < 1e-13                 : 0
    faces with face-decomposition tet quality < 1e-15      : 0
    faces with concavity > 80  degrees                     : 0
    faces with skewness > 4   (internal) or 20  (boundary) : 0
    faces with interpolation weights (0..1)  < 0.05        : 0
    faces with volume ratio of neighbour cells < 0.01      : 0
    faces with face twist < 0.02                           : 0
    faces on cells with determinant < 0.001                : 0

Iteration 12
Moving mesh using displacement scaling : min:0  max:1
Checking faces in error :
    non-orthogonality > 55  degrees                        : 2871
    faces with face pyramid volume < 1e-13                 : 0
    faces with face-decomposition tet quality < 1e-15      : 0
    faces with concavity > 80  degrees                     : 0
    faces with skewness > 4   (internal) or 20  (boundary) : 0
    faces with interpolation weights (0..1)  < 0.05        : 0
    faces with volume ratio of neighbour cells < 0.01      : 0
    faces with face twist < 0.02                           : 0
    faces on cells with determinant < 0.001                : 0

Iteration 13
Moving mesh using displacement scaling : min:0  max:1
Checking faces in error :
    non-orthogonality > 55  degrees                        : 2854
    faces with face pyramid volume < 1e-13                 : 0
    faces with face-decomposition tet quality < 1e-15      : 0
    faces with concavity > 80  degrees                     : 0
    faces with skewness > 4   (internal) or 20  (boundary) : 0
    faces with interpolation weights (0..1)  < 0.05        : 0
    faces with volume ratio of neighbour cells < 0.01      : 0
    faces with face twist < 0.02                           : 0
    faces on cells with determinant < 0.001                : 0

Iteration 14
Moving mesh using displacement scaling : min:0  max:1
Checking faces in error :
    non-orthogonality > 55  degrees                        : 2852
    faces with face pyramid volume < 1e-13                 : 0
    faces with face-decomposition tet quality < 1e-15      : 0
    faces with concavity > 80  degrees                     : 0
    faces with skewness > 4   (internal) or 20  (boundary) : 0
    faces with interpolation weights (0..1)  < 0.05        : 0
    faces with volume ratio of neighbour cells < 0.01      : 0
    faces with face twist < 0.02                           : 0
    faces on cells with determinant < 0.001                : 0
Successfully moved mesh
Moved mesh in = 4.22 s



Morph iteration 24
-----------------
Calculating patchDisplacement as distance to nearest surface point ...
    non-zone points : attract to nearest of all non-zone surfaces
    zone points     : attract to zone surface only

Wanted displacement : average:0.00137043 min:1.98603e-15 max:0.2625
Calculated surface displacement in = 0.01 s


Detecting near surfaces ...
Overriding nearest with intersection of close gaps at 0 out of 45009 points.
Overriding displacement on features :
   implicit features    : true
   explicit features    : true
   multi-patch features : false

Detected 0 baffle edges out of 89234 edges.
Baffle points     : 0 of which attracted to :
    feature point : 0
    feature edge  : 0
    rest          : 0

Initially selected 2143 mesh points out of 45009 for reverse attraction.
Selected 5151 mesh points out of 45009 for reverse attraction.
Stringing feature edges : changed 10 points
Stringing feature edges : changed 2 points
Stringing feature edges : changed 0 points
Attraction:
    linear   : max:(0.2625 -8.88178e-16 1.77636e-15) avg:(0.000343186 -7.67671e-07 -0.000928972)
    feature  : max:(-2.84217e-14 0.133116 0.0568743) avg:(3.26315e-05 5.28766e-06 0.000127986)
Feature analysis : total master points :45009 of which attracted to :
    feature point   : 27
    feature edge    : 1786
    nearest surface : 0
    rest            : 43196

--> FOAM Warning : Displacement (0 -7.94785e-07 0) at mesh point 265397 coord (-119.612 1 0) points through the surrounding patch faces
Smoothing displacement ...
Iteration 0
Iteration 10
Iteration 20
Iteration 30
Iteration 40
Iteration 50
Iteration 60
Iteration 70
Iteration 80
Iteration 90
Iteration 100
Iteration 110
Iteration 120
Iteration 130
Iteration 140
Iteration 150
Iteration 160
Iteration 170
Iteration 180
Iteration 190
Iteration 200
Iteration 210
Iteration 220
Iteration 230
Iteration 240
Iteration 250
Iteration 260
Iteration 270
Iteration 280
Iteration 290
Displacement smoothed in = 2.9 s


Moving mesh ...

Iteration 0
Moving mesh using displacement scaling : min:1  max:1
Checking faces in error :
    non-orthogonality > 55  degrees                        : 2971
    faces with face pyramid volume < 1e-13                 : 9
    faces with face-decomposition tet quality < 1e-15      : 21
    faces with concavity > 80  degrees                     : 2
    faces with skewness > 4   (internal) or 20  (boundary) : 0
    faces with interpolation weights (0..1)  < 0.05        : 0
    faces with volume ratio of neighbour cells < 0.01      : 0
    faces with face twist < 0.02                           : 26
    faces on cells with determinant < 0.001                : 0

Iteration 1
Moving mesh using displacement scaling : min:0.75  max:1
Checking faces in error :
    non-orthogonality > 55  degrees                        : 2962
    faces with face pyramid volume < 1e-13                 : 1
    faces with face-decomposition tet quality < 1e-15      : 7
    faces with concavity > 80  degrees                     : 0
    faces with skewness > 4   (internal) or 20  (boundary) : 0
    faces with interpolation weights (0..1)  < 0.05        : 0
    faces with volume ratio of neighbour cells < 0.01      : 0
    faces with face twist < 0.02                           : 36
    faces on cells with determinant < 0.001                : 0

Iteration 2
Moving mesh using displacement scaling : min:0.5625  max:1
Checking faces in error :
    non-orthogonality > 55  degrees                        : 2957
    faces with face pyramid volume < 1e-13                 : 1
    faces with face-decomposition tet quality < 1e-15      : 5
    faces with concavity > 80  degrees                     : 0
    faces with skewness > 4   (internal) or 20  (boundary) : 0
    faces with interpolation weights (0..1)  < 0.05        : 0
    faces with volume ratio of neighbour cells < 0.01      : 0
    faces with face twist < 0.02                           : 36
    faces on cells with determinant < 0.001                : 0

Iteration 3
Moving mesh using displacement scaling : min:0.421875  max:1
Checking faces in error :
    non-orthogonality > 55  degrees                        : 2955
    faces with face pyramid volume < 1e-13                 : 1
    faces with face-decomposition tet quality < 1e-15      : 5
    faces with concavity > 80  degrees                     : 0
    faces with skewness > 4   (internal) or 20  (boundary) : 0
    faces with interpolation weights (0..1)  < 0.05        : 0
    faces with volume ratio of neighbour cells < 0.01      : 0
    faces with face twist < 0.02                           : 35
    faces on cells with determinant < 0.001                : 0

Iteration 4
Moving mesh using displacement scaling : min:0.316406  max:1
Checking faces in error :
    non-orthogonality > 55  degrees                        : 2952
    faces with face pyramid volume < 1e-13                 : 0
    faces with face-decomposition tet quality < 1e-15      : 6
    faces with concavity > 80  degrees                     : 0
    faces with skewness > 4   (internal) or 20  (boundary) : 0
    faces with interpolation weights (0..1)  < 0.05        : 0
    faces with volume ratio of neighbour cells < 0.01      : 0
    faces with face twist < 0.02                           : 35
    faces on cells with determinant < 0.001                : 0

Iteration 5
Moving mesh using displacement scaling : min:0.237305  max:1
Checking faces in error :
    non-orthogonality > 55  degrees                        : 2944
    faces with face pyramid volume < 1e-13                 : 0
    faces with face-decomposition tet quality < 1e-15      : 4
    faces with concavity > 80  degrees                     : 0
    faces with skewness > 4   (internal) or 20  (boundary) : 0
    faces with interpolation weights (0..1)  < 0.05        : 0
    faces with volume ratio of neighbour cells < 0.01      : 0
    faces with face twist < 0.02                           : 36
    faces on cells with determinant < 0.001                : 0

Iteration 6
Moving mesh using displacement scaling : min:0.177979  max:1
Checking faces in error :
    non-orthogonality > 55  degrees                        : 2940
    faces with face pyramid volume < 1e-13                 : 0
    faces with face-decomposition tet quality < 1e-15      : 3
    faces with concavity > 80  degrees                     : 0
    faces with skewness > 4   (internal) or 20  (boundary) : 0
    faces with interpolation weights (0..1)  < 0.05        : 0
    faces with volume ratio of neighbour cells < 0.01      : 0
    faces with face twist < 0.02                           : 36
    faces on cells with determinant < 0.001                : 0

Iteration 7
Moving mesh using displacement scaling : min:0.133484  max:1
Checking faces in error :
    non-orthogonality > 55  degrees                        : 2935
    faces with face pyramid volume < 1e-13                 : 0
    faces with face-decomposition tet quality < 1e-15      : 1
    faces with concavity > 80  degrees                     : 0
    faces with skewness > 4   (internal) or 20  (boundary) : 0
    faces with interpolation weights (0..1)  < 0.05        : 0
    faces with volume ratio of neighbour cells < 0.01      : 0
    faces with face twist < 0.02                           : 37
    faces on cells with determinant < 0.001                : 0

Iteration 8
Moving mesh using displacement scaling : min:0.100113  max:1
Checking faces in error :
    non-orthogonality > 55  degrees                        : 2917
    faces with face pyramid volume < 1e-13                 : 0
    faces with face-decomposition tet quality < 1e-15      : 1
    faces with concavity > 80  degrees                     : 0
    faces with skewness > 4   (internal) or 20  (boundary) : 0
    faces with interpolation weights (0..1)  < 0.05        : 0
    faces with volume ratio of neighbour cells < 0.01      : 0
    faces with face twist < 0.02                           : 35
    faces on cells with determinant < 0.001                : 0

Iteration 9
Moving mesh using displacement scaling : min:0.0750847  max:1
Checking faces in error :
    non-orthogonality > 55  degrees                        : 2906
    faces with face pyramid volume < 1e-13                 : 0
    faces with face-decomposition tet quality < 1e-15      : 1
    faces with concavity > 80  degrees                     : 0
    faces with skewness > 4   (internal) or 20  (boundary) : 0
    faces with interpolation weights (0..1)  < 0.05        : 0
    faces with volume ratio of neighbour cells < 0.01      : 0
    faces with face twist < 0.02                           : 35
    faces on cells with determinant < 0.001                : 0

Iteration 10
Displacement scaling for error reduction set to 0.
Moving mesh using displacement scaling : min:0.0563135  max:1
Checking faces in error :
    non-orthogonality > 55  degrees                        : 2901
    faces with face pyramid volume < 1e-13                 : 0
    faces with face-decomposition tet quality < 1e-15      : 0
    faces with concavity > 80  degrees                     : 0
    faces with skewness > 4   (internal) or 20  (boundary) : 0
    faces with interpolation weights (0..1)  < 0.05        : 0
    faces with volume ratio of neighbour cells < 0.01      : 0
    faces with face twist < 0.02                           : 35
    faces on cells with determinant < 0.001                : 0

Iteration 11
Moving mesh using displacement scaling : min:0  max:1
Checking faces in error :
    non-orthogonality > 55  degrees                        : 2881
    faces with face pyramid volume < 1e-13                 : 0
    faces with face-decomposition tet quality < 1e-15      : 1
    faces with concavity > 80  degrees                     : 0
    faces with skewness > 4   (internal) or 20  (boundary) : 0
    faces with interpolation weights (0..1)  < 0.05        : 0
    faces with volume ratio of neighbour cells < 0.01      : 0
    faces with face twist < 0.02                           : 0
    faces on cells with determinant < 0.001                : 0

Iteration 12
Moving mesh using displacement scaling : min:0  max:1
Checking faces in error :
    non-orthogonality > 55  degrees                        : 2866
    faces with face pyramid volume < 1e-13                 : 0
    faces with face-decomposition tet quality < 1e-15      : 0
    faces with concavity > 80  degrees                     : 0
    faces with skewness > 4   (internal) or 20  (boundary) : 0
    faces with interpolation weights (0..1)  < 0.05        : 0
    faces with volume ratio of neighbour cells < 0.01      : 0
    faces with face twist < 0.02                           : 0
    faces on cells with determinant < 0.001                : 0

Iteration 13
Moving mesh using displacement scaling : min:0  max:1
Checking faces in error :
    non-orthogonality > 55  degrees                        : 2853
    faces with face pyramid volume < 1e-13                 : 0
    faces with face-decomposition tet quality < 1e-15      : 0
    faces with concavity > 80  degrees                     : 0
    faces with skewness > 4   (internal) or 20  (boundary) : 0
    faces with interpolation weights (0..1)  < 0.05        : 0
    faces with volume ratio of neighbour cells < 0.01      : 0
    faces with face twist < 0.02                           : 0
    faces on cells with determinant < 0.001                : 0

Iteration 14
Moving mesh using displacement scaling : min:0  max:1
Checking faces in error :
    non-orthogonality > 55  degrees                        : 2852
    faces with face pyramid volume < 1e-13                 : 0
    faces with face-decomposition tet quality < 1e-15      : 0
    faces with concavity > 80  degrees                     : 0
    faces with skewness > 4   (internal) or 20  (boundary) : 0
    faces with interpolation weights (0..1)  < 0.05        : 0
    faces with volume ratio of neighbour cells < 0.01      : 0
    faces with face twist < 0.02                           : 0
    faces on cells with determinant < 0.001                : 0
Successfully moved mesh
Moved mesh in = 4.35 s


Repatching faces according to nearest surface ...
Repatched 0 faces in = 0.06 s


Edge intersection testing:
    Number of edges             : 1295017
    Number of edges to retest   : 259516
    Number of intersected edges : 44223
Merging 228 sets of faces.

Edge intersection testing:
    Number of edges             : 1294784
    Number of edges to retest   : 915
    Number of intersected edges : 43990

Undo iteration 0
----------------
Checking faces in error :
    non-orthogonality > 55  degrees                        : 2856
    faces with face pyramid volume < 1e-13                 : 0
    faces with face-decomposition tet quality < 1e-15      : 0
    faces with concavity > 80  degrees                     : 0
    faces with skewness > 4   (internal) or 20  (boundary) : 0
    faces with interpolation weights (0..1)  < 0.05        : 0
    faces with volume ratio of neighbour cells < 0.01      : 0
    faces with face twist < 0.02                           : 0
    faces on cells with determinant < 0.001                : 0
Masters that need to be restored:4
Edge intersection testing:
    Number of edges             : 1294788
    Number of edges to retest   : 21
    Number of intersected edges : 43994


Undo iteration 1
----------------
Checking faces in error :
    non-orthogonality > 55  degrees                        : 2852
    faces with face pyramid volume < 1e-13                 : 0
    faces with face-decomposition tet quality < 1e-15      : 0
    faces with concavity > 80  degrees                     : 0
    faces with skewness > 4   (internal) or 20  (boundary) : 0
    faces with interpolation weights (0..1)  < 0.05        : 0
    faces with volume ratio of neighbour cells < 0.01      : 0
    faces with face twist < 0.02                           : 0
    faces on cells with determinant < 0.001                : 0
Masters that need to be restored:0

Merging all points on surface that
- are used by only two boundary faces and
- make an angle with a cosine of more than 0.866025.

Removing 219 straight edge points ...

Edge intersection testing:
    Number of edges             : 1294788
    Number of edges to retest   : 900
    Number of intersected edges : 43994

Undo iteration 0
----------------
Checking faces in error :
    non-orthogonality > 55  degrees                        : 2852
    faces with face pyramid volume < 1e-13                 : 0
    faces with face-decomposition tet quality < 1e-15      : 1
    faces with concavity > 80  degrees                     : 0
    faces with skewness > 4   (internal) or 20  (boundary) : 0
    faces with interpolation weights (0..1)  < 0.05        : 0
    faces with volume ratio of neighbour cells < 0.01      : 0
    faces with face twist < 0.02                           : 0
    faces on cells with determinant < 0.001                : 0
Detected 0 error faces on boundaries that have been merged. These will be restored to their original faces.

Detected 2853 error faces in mesh. Restoring neighbours of faces in error.

Edge intersection testing:
    Number of edges             : 1294788
    Number of edges to retest   : 26258
    Number of intersected edges : 43994
Snapped mesh : cells:411750  faces:1294788  points:472129
Cells per refinement level:
    0	211439
    1	63955
    2	48890
    3	17384
    4	18154
    5	18606
    6	18406
    7	14916
Writing mesh to time constant
Wrote mesh in = 0.04 s.
Mesh snapped in = 161.57 s.
Checking final mesh ...
Checking faces in error :
    non-orthogonality > 55  degrees                        : 2852
    faces with face pyramid volume < 1e-13                 : 0
    faces with face-decomposition tet quality < 1e-15      : 0
    faces with concavity > 80  degrees                     : 0
    faces with skewness > 4   (internal) or 20  (boundary) : 0
    faces with interpolation weights (0..1)  < 0.05        : 0
    faces with volume ratio of neighbour cells < 0.01      : 0
    faces with face twist < 0.02                           : 0
    faces on cells with determinant < 0.001                : 0
Finished meshing with 2852 illegal faces (concave, zero area or negative cell pyramid volume)
Finished meshing in = 189.41 s.
End

