/*---------------------------------------------------------------------------*\
| =========                 |                                                 |
| \\      /  F ield         | OpenFOAM: The Open Source CFD Toolbox           |
|  \\    /   O peration     | Version:  2406                                  |
|   \\  /    A nd           | Website:  www.openfoam.com                      |
|    \\/     M anipulation  |                                                 |
\*---------------------------------------------------------------------------*/
Build  : _630d60de3b-20240620 OPENFOAM=2406 version=v2406
Arch   : "LSB;label=32;scalar=64"
Exec   : snappyHexMesh -overwrite
Date   : Mar 19 2026
Time   : 15:15:24
Host   : RISEPC-MhOrpSuy
PID    : 153079
I/O    : uncollated
Case   : /home/chenhu/OpenFOAM/chenhu-v2406/run/Bunkering/Bunkering_02
nProcs : 1
trapFpe: Floating point exception trapping enabled (FOAM_SIGFPE).
fileModificationChecking : Monitoring run-time modified files using timeStampMaster (fileModificationSkew 5, maxFileModificationPolls 20)
allowSystemOperations : Allowing user-supplied system call operations

// * * * * * * * * * * * * * * * * * * * * * * * * * * * * * * * * * * * * * //
Create time

Create mesh for time = 0

Read mesh in = 0.04 s
Using #codeStream at line 65 in file "system/snappyHexMeshDict/geometry"
Using #codeStream with "/home/chenhu/OpenFOAM/chenhu-v2406/run/Bunkering/Bunkering_02/dynamicCode/platforms/linux64GccDPInt32Opt/lib/libcodeStream_d7dee851a6a002b13cfcc4786841af824ce2bf85.so"
Could not load "/home/chenhu/OpenFOAM/chenhu-v2406/run/Bunkering/Bunkering_02/dynamicCode/platforms/linux64GccDPInt32Opt/lib/libcodeStream_d7dee851a6a002b13cfcc4786841af824ce2bf85.so"
/home/chenhu/OpenFOAM/chenhu-v2406/run/Bunkering/Bunkering_02/dynamicCode/platforms/linux64GccDPInt32Opt/lib/libcodeStream_d7dee851a6a002b13cfcc4786841af824ce2bf85.so: cannot open shared object file: No such file or directory
Creating new library in "dynamicCode/_d7dee851a6a002b13cfcc4786841af824ce2bf85/platforms/linux64GccDPInt32Opt/lib/libcodeStream_d7dee851a6a002b13cfcc4786841af824ce2bf85.so"
Invoking wmake libso /home/chenhu/OpenFOAM/chenhu-v2406/run/Bunkering/Bunkering_02/dynamicCode/_d7dee851a6a002b13cfcc4786841af824ce2bf85
wmake libso /home/chenhu/OpenFOAM/chenhu-v2406/run/Bunkering/Bunkering_02/dynamicCode/_d7dee851a6a002b13cfcc4786841af824ce2bf85
    ln: ./lnInclude
    dep: codeStreamTemplate.C
    Ctoo: codeStreamTemplate.C
    link: /home/chenhu/OpenFOAM/chenhu-v2406/run/Bunkering/Bunkering_02/dynamicCode/_d7dee851a6a002b13cfcc4786841af824ce2bf85/../platforms/linux64GccDPInt32Opt/lib/libcodeStream_d7dee851a6a002b13cfcc4786841af824ce2bf85.so
Using #codeStream at line 200 in file "system/snappyHexMeshDict/castellatedMeshControls/refinementRegions"
Using #codeStream with "/home/chenhu/OpenFOAM/chenhu-v2406/run/Bunkering/Bunkering_02/dynamicCode/platforms/linux64GccDPInt32Opt/lib/libcodeStream_f67e2fd5cb1766e4ac0d6ce8844f56377f01c3ad.so"
Could not load "/home/chenhu/OpenFOAM/chenhu-v2406/run/Bunkering/Bunkering_02/dynamicCode/platforms/linux64GccDPInt32Opt/lib/libcodeStream_f67e2fd5cb1766e4ac0d6ce8844f56377f01c3ad.so"
/home/chenhu/OpenFOAM/chenhu-v2406/run/Bunkering/Bunkering_02/dynamicCode/platforms/linux64GccDPInt32Opt/lib/libcodeStream_f67e2fd5cb1766e4ac0d6ce8844f56377f01c3ad.so: cannot open shared object file: No such file or directory
Creating new library in "dynamicCode/_f67e2fd5cb1766e4ac0d6ce8844f56377f01c3ad/platforms/linux64GccDPInt32Opt/lib/libcodeStream_f67e2fd5cb1766e4ac0d6ce8844f56377f01c3ad.so"
Invoking wmake libso /home/chenhu/OpenFOAM/chenhu-v2406/run/Bunkering/Bunkering_02/dynamicCode/_f67e2fd5cb1766e4ac0d6ce8844f56377f01c3ad
wmake libso /home/chenhu/OpenFOAM/chenhu-v2406/run/Bunkering/Bunkering_02/dynamicCode/_f67e2fd5cb1766e4ac0d6ce8844f56377f01c3ad
    ln: ./lnInclude
    dep: codeStreamTemplate.C
    Ctoo: codeStreamTemplate.C
    link: /home/chenhu/OpenFOAM/chenhu-v2406/run/Bunkering/Bunkering_02/dynamicCode/_f67e2fd5cb1766e4ac0d6ce8844f56377f01c3ad/../platforms/linux64GccDPInt32Opt/lib/libcodeStream_f67e2fd5cb1766e4ac0d6ce8844f56377f01c3ad.so

Overall mesh bounding box  : (-150 -40 0) (40 40 42)
Relative tolerance         : 1e-06
Absolute matching distance : 0.00021039

Reading refinement surfaces.
Read refinement surfaces in = 0 s

Reading refinement shells.
Refinement level 1 for all cells inside refinementBox_1xsmall
Refinement level 2 for all cells inside refinementBox_2xsmall
Refinement level 3 for all cells inside refinementBox_3xsmall
Refinement level 4 for all cells inside refinementBox_4xsmall
Refinement level 5 for all cells inside refinementBox_5xsmall
Refinement level 6 for all cells inside refinementBox_6xsmall
Refinement level 7 for all cells inside refinementBox_7xsmall
Read refinement shells in = 0 s

Setting refinement level of surface to be consistent with shells.
For geometry bunkering-boat_m.stl detected 0 uncached triangles out of 12
For geometry bunkering-quay_m.stl detected 0 uncached triangles out of 12
For geometry bunkering-nozzle_up_m.stl detected 24 uncached triangles out of 28
Checked shell refinement in = 0 s

Reading features.
Read edgeMesh bunkering-boat_m.eMesh
    points      : 8
    edges       : 12
    boundingBox : (-120 1 0) (10 31 12)

Refinement level according to distance to "bunkering-boat_m.eMesh" (8 points, 12 edges).
    level 1 for all cells within 0 metre.
Read edgeMesh bunkering-quay_m.eMesh
    points      : 8
    edges       : 12
    boundingBox : (-200 -50 0) (100 0 5)

Refinement level according to distance to "bunkering-quay_m.eMesh" (8 points, 12 edges).
    level 1 for all cells within 0 metre.
Read edgeMesh bunkering-nozzle_up_m.eMesh
    points      : 16
    edges       : 24
    boundingBox : (-0.1 -0.1 6.8) (0.1 0.1 7)

Refinement level according to distance to "bunkering-nozzle_up_m.eMesh" (16 points, 24 edges).
    level 6 for all cells within 0 metre.
Read features in = 0 s


Determining initial surface intersections
-----------------------------------------

Edge intersection testing:
    Number of edges             : 798170
    Number of edges to retest   : 0
    Number of intersected edges : 0
Edge intersection testing:
    Number of edges             : 798170
    Number of edges to retest   : 798170
    Number of intersected edges : 12548
Calculated surface intersections in = 0.49 s

Initial mesh : cells:261800  faces:798170  points:274770
Cells per refinement level:
    0	261800
Setting refinement level of surface to be consistent with curvature.
Checked curvature refinement in = 0 s


Adding patches for surface regions
----------------------------------

Patch Type                Region                        
----- ----                ------                        
bunkering-boat_m:

6     wall                bunkering-boat_m              

bunkering-quay_m:

7     wall                bunkering-quay_m              

bunkering-nozzle_up_m:

8     wall                bunkering-nozzle_up_m         

Added patches in = 0 s

Edge intersection testing:
    Number of edges             : 798170
    Number of edges to retest   : 0
    Number of intersected edges : 12548
Decomposition method none [1]

Refinement phase
----------------

Found point (0 0 10) in cell 234675 on processor 0

Feature refinement iteration 0
------------------------------

Marked for refinement due to explicit features             : 412 cells.
Determined cells to refine in = 0.99 s
Selected for feature refinement : 412 cells (out of 261800)
Edge intersection testing:
    Number of edges             : 809270
    Number of edges to retest   : 18864
    Number of intersected edges : 14426
Refined mesh in = 0.35 s
After refinement feature refinement iteration 0 : cells:264684  faces:809270  points:280504
Cells per refinement level:
    0	261388
    1	3296

Feature refinement iteration 1
------------------------------

Marked for refinement due to explicit features             : 8 cells.
Determined cells to refine in = 0.92 s
Selected for feature refinement : 8 cells (out of 264684)
Edge intersection testing:
    Number of edges             : 809474
    Number of edges to retest   : 336
    Number of intersected edges : 14428
Refined mesh in = 0.34 s
After refinement feature refinement iteration 1 : cells:264740  faces:809474  points:280602
Cells per refinement level:
    0	261388
    1	3288
    2	64

Feature refinement iteration 2
------------------------------

Marked for refinement due to explicit features             : 12 cells.
Determined cells to refine in = 0.92 s
Selected for feature refinement : 20 cells (out of 264740)
Edge intersection testing:
    Number of edges             : 809966
    Number of edges to retest   : 804
    Number of intersected edges : 14454
Refined mesh in = 0.32 s
After refinement feature refinement iteration 2 : cells:264880  faces:809966  points:280823
Cells per refinement level:
    0	261384
    1	3316
    2	84
    3	96

Feature refinement iteration 3
------------------------------

Marked for refinement due to explicit features             : 25 cells.
Determined cells to refine in = 0.97 s
Selected for feature refinement : 47 cells (out of 264880)
Edge intersection testing:
    Number of edges             : 811127
    Number of edges to retest   : 1846
    Number of intersected edges : 14544
Refined mesh in = 0.32 s
After refinement feature refinement iteration 3 : cells:265209  faces:811127  points:281343
Cells per refinement level:
    0	261378
    1	3358
    2	122
    3	151
    4	200

Feature refinement iteration 4
------------------------------

Marked for refinement due to explicit features             : 54 cells.
Determined cells to refine in = 0.96 s
Selected for feature refinement : 96 cells (out of 265209)
Edge intersection testing:
    Number of edges             : 813518
    Number of edges to retest   : 3702
    Number of intersected edges : 14752
Refined mesh in = 0.34 s
After refinement feature refinement iteration 4 : cells:265881  faces:813518  points:282431
Cells per refinement level:
    0	261374
    1	3386
    2	144
    3	206
    4	347
    5	424

Feature refinement iteration 5
------------------------------

Marked for refinement due to explicit features             : 107 cells.
Determined cells to refine in = 0.97 s
Selected for feature refinement : 213 cells (out of 265881)
Edge intersection testing:
    Number of edges             : 818777
    Number of edges to retest   : 8452
    Number of intersected edges : 15254
Refined mesh in = 0.32 s
After refinement feature refinement iteration 5 : cells:267372  faces:818777  points:284779
Cells per refinement level:
    0	261369
    1	3421
    2	177
    3	241
    4	439
    5	933
    6	792

Feature refinement iteration 6
------------------------------

Marked for refinement due to explicit features             : 23 cells.
Determined cells to refine in = 1.11 s
Selected for feature refinement : 35 cells (out of 267372)
Edge intersection testing:
    Number of edges             : 819590
    Number of edges to retest   : 2176
    Number of intersected edges : 15287
Refined mesh in = 0.33 s
After refinement feature refinement iteration 6 : cells:267617  faces:819590  points:285105
Cells per refinement level:
    0	261368
    1	3428
    2	184
    3	247
    4	448
    5	966
    6	976

Feature refinement iteration 7
------------------------------

Marked for refinement due to explicit features             : 3 cells.
Determined cells to refine in = 0.93 s
Selected for feature refinement : 4 cells (out of 267617)
Edge intersection testing:
    Number of edges             : 819674
    Number of edges to retest   : 362
    Number of intersected edges : 15296
Refined mesh in = 0.31 s
After refinement feature refinement iteration 7 : cells:267645  faces:819674  points:285131
Cells per refinement level:
    0	261368
    1	3428
    2	184
    3	247
    4	447
    5	971
    6	1000

Feature refinement iteration 8
------------------------------

Marked for refinement due to explicit features             : 0 cells.
Determined cells to refine in = 0.92 s
Selected for feature refinement : 0 cells (out of 267645)
Stopping refining since too few cells selected.


Surface refinement iteration 0
------------------------------

Marked for refinement due to surface intersection          : 19402 cells.
Marked for refinement due to curvature/regions             : 62 cells.
Determined cells to refine in = 0.02 s
Selected for refinement : 19474 cells (out of 267645)
Edge intersection testing:
    Number of edges             : 1263299
    Number of edges to retest   : 583261
    Number of intersected edges : 51264
Refined mesh in = 0.59 s
After refinement surface refinement iteration 0 : cells:403963  faces:1263299  points:455827
Cells per refinement level:
    0	242297
    1	155996
    2	184
    3	245
    4	409
    5	1196
    6	2516
    7	1120

Surface refinement iteration 1
------------------------------

Marked for refinement due to surface intersection          : 178 cells.
Marked for refinement due to curvature/regions             : 0 cells.
Determined cells to refine in = 0.04 s
Selected for refinement : 186 cells (out of 403963)
Edge intersection testing:
    Number of edges             : 1267385
    Number of edges to retest   : 8355
    Number of intersected edges : 51452
Refined mesh in = 0.57 s
After refinement surface refinement iteration 1 : cells:405265  faces:1267385  points:457302
Cells per refinement level:
    0	242297
    1	155996
    2	184
    3	245
    4	407
    5	1186
    6	2566
    7	2384

Surface refinement iteration 2
------------------------------

Marked for refinement due to surface intersection          : 0 cells.
Marked for refinement due to curvature/regions             : 0 cells.
Determined cells to refine in = 0.06 s
Selected for refinement : 0 cells (out of 405265)
Stopping refining since too few cells selected.


Removing mesh beyond surface intersections
------------------------------------------

Setting cellZones according to locationsInMesh:
Location : (0 0 10)
    cellZone : none

For cellZone none found point (0 0 10) in global region 1 out of 4 regions.
--> FOAM Warning : 
    From void Foam::meshRefinement::nearestFace(const labelUList&, const Foam::bitSet&, Foam::autoPtr<Foam::mapDistribute>&, Foam::labelList&, Foam::label) const
    in file meshRefinement/meshRefinement.C at line 515
    Did not visit some faces, e.g. face 134779 at (0 -0.593433 6.59766)
Keeping all cells containing inside points
Selected for keeping : 340153 cells.
Edge intersection testing:
    Number of edges             : 1078736
    Number of edges to retest   : 49224
    Number of intersected edges : 51452

Shell refinement iteration 0
----------------------------

Marked for refinement due to distance to explicit features : 0 cells.
Marked for refinement due to refinement shells             : 3676 cells.
Determined cells to refine in = 0.6 s
Selected for internal refinement : 3826 cells (out of 340153)
Edge intersection testing:
    Number of edges             : 1162532
    Number of edges to retest   : 109726
    Number of intersected edges : 52038
Refined mesh in = 0.49 s
After refinement shell refinement iteration 0 : cells:366935  faces:1162532  points:429036
Cells per refinement level:
    0	207376
    1	144869
    2	3974
    3	854
    4	1162
    5	1854
    6	3856
    7	2990

Shell refinement iteration 1
----------------------------

Marked for refinement due to distance to explicit features : 0 cells.
Marked for refinement due to refinement shells             : 5192 cells.
Determined cells to refine in = 0.06 s
Selected for internal refinement : 5303 cells (out of 366935)
Edge intersection testing:
    Number of edges             : 1277996
    Number of edges to retest   : 151091
    Number of intersected edges : 52740
Refined mesh in = 0.52 s
After refinement shell refinement iteration 1 : cells:404056  faces:1277996  points:470340
Cells per refinement level:
    0	207367
    1	142139
    2	24990
    3	11734
    4	3412
    5	4068
    6	5788
    7	4558

Shell refinement iteration 2
----------------------------

Marked for refinement due to distance to explicit features : 0 cells.
Marked for refinement due to refinement shells             : 6368 cells.
Determined cells to refine in = 0.06 s
Selected for internal refinement : 6415 cells (out of 404056)
Edge intersection testing:
    Number of edges             : 1416803
    Number of edges to retest   : 180056
    Number of intersected edges : 52759
Refined mesh in = 0.63 s
After refinement shell refinement iteration 2 : cells:448961  faces:1416803  points:519406
Cells per refinement level:
    0	207365
    1	142150
    2	22160
    3	32348
    4	21774
    5	6914
    6	8620
    7	7630

Shell refinement iteration 3
----------------------------

Marked for refinement due to distance to explicit features : 0 cells.
Marked for refinement due to refinement shells             : 5760 cells.
Determined cells to refine in = 0.08 s
Selected for internal refinement : 5784 cells (out of 448961)
Edge intersection testing:
    Number of edges             : 1541807
    Number of edges to retest   : 160545
    Number of intersected edges : 52771
Refined mesh in = 0.71 s
After refinement shell refinement iteration 3 : cells:489449  faces:1541807  points:563489
Cells per refinement level:
    0	207365
    1	142150
    2	22160
    3	30428
    4	34824
    5	24608
    6	14140
    7	13774

Shell refinement iteration 4
----------------------------

Marked for refinement due to distance to explicit features : 0 cells.
Marked for refinement due to refinement shells             : 5376 cells.
Determined cells to refine in = 0.09 s
Selected for internal refinement : 5392 cells (out of 489449)
Edge intersection testing:
    Number of edges             : 1658234
    Number of edges to retest   : 148462
    Number of intersected edges : 52783
Refined mesh in = 0.68 s
After refinement shell refinement iteration 4 : cells:527193  faces:1658234  points:604475
Cells per refinement level:
    0	207365
    1	142150
    2	22160
    3	30428
    4	33288
    5	34576
    6	31164
    7	26062

Shell refinement iteration 5
----------------------------

Marked for refinement due to distance to explicit features : 0 cells.
Marked for refinement due to refinement shells             : 2112 cells.
Determined cells to refine in = 0.08 s
Selected for internal refinement : 2132 cells (out of 527193)
Edge intersection testing:
    Number of edges             : 1704161
    Number of edges to retest   : 61336
    Number of intersected edges : 52795
Refined mesh in = 0.73 s
After refinement shell refinement iteration 5 : cells:542117  faces:1704161  points:620568
Cells per refinement level:
    0	207365
    1	142150
    2	22160
    3	30428
    4	33282
    5	33842
    6	36076
    7	36814

Shell refinement iteration 6
----------------------------

Marked for refinement due to distance to explicit features : 0 cells.
Marked for refinement due to refinement shells             : 0 cells.
Determined cells to refine in = 0.1 s
Selected for internal refinement : 14 cells (out of 542117)
Edge intersection testing:
    Number of edges             : 1704479
    Number of edges to retest   : 1075
    Number of intersected edges : 52807
Refined mesh in = 0.7 s
After refinement shell refinement iteration 6 : cells:542215  faces:1704479  points:620690
Cells per refinement level:
    0	207365
    1	142150
    2	22160
    3	30428
    4	33282
    5	33828
    6	36188
    7	36814

Shell refinement iteration 7
----------------------------

Marked for refinement due to distance to explicit features : 0 cells.
Marked for refinement due to refinement shells             : 0 cells.
Determined cells to refine in = 0.09 s
Selected for internal refinement : 20 cells (out of 542215)
Edge intersection testing:
    Number of edges             : 1704932
    Number of edges to retest   : 1416
    Number of intersected edges : 52825
Refined mesh in = 0.72 s
After refinement shell refinement iteration 7 : cells:542355  faces:1704932  points:620859
Cells per refinement level:
    0	207365
    1	142150
    2	22160
    3	30428
    4	33276
    5	33862
    6	36300
    7	36814

Shell refinement iteration 8
----------------------------

Marked for refinement due to distance to explicit features : 0 cells.
Marked for refinement due to refinement shells             : 0 cells.
Determined cells to refine in = 0.09 s
Selected for internal refinement : 16 cells (out of 542355)
Edge intersection testing:
    Number of edges             : 1705283
    Number of edges to retest   : 1332
    Number of intersected edges : 52831
Refined mesh in = 0.69 s
After refinement shell refinement iteration 8 : cells:542467  faces:1705283  points:620984
Cells per refinement level:
    0	207365
    1	142150
    2	22160
    3	30426
    4	33290
    5	33866
    6	36396
    7	36814

Shell refinement iteration 9
----------------------------

Marked for refinement due to distance to explicit features : 0 cells.
Marked for refinement due to refinement shells             : 0 cells.
Determined cells to refine in = 0.1 s
Selected for internal refinement : 26 cells (out of 542467)
Edge intersection testing:
    Number of edges             : 1705853
    Number of edges to retest   : 1863
    Number of intersected edges : 52831
Refined mesh in = 0.7 s
After refinement shell refinement iteration 9 : cells:542649  faces:1705853  points:621190
Cells per refinement level:
    0	207365
    1	142150
    2	22160
    3	30426
    4	33280
    5	33930
    6	36524
    7	36814

Shell refinement iteration 10
----------------------------

Marked for refinement due to distance to explicit features : 0 cells.
Marked for refinement due to refinement shells             : 0 cells.
Determined cells to refine in = 0.12 s
Selected for internal refinement : 16 cells (out of 542649)
Edge intersection testing:
    Number of edges             : 1706210
    Number of edges to retest   : 1210
    Number of intersected edges : 52837
Refined mesh in = 0.74 s
After refinement shell refinement iteration 10 : cells:542761  faces:1706210  points:621321
Cells per refinement level:
    0	207365
    1	142150
    2	22158
    3	30438
    4	33312
    5	33920
    6	36604
    7	36814

Shell refinement iteration 11
----------------------------

Marked for refinement due to distance to explicit features : 0 cells.
Marked for refinement due to refinement shells             : 0 cells.
Determined cells to refine in = 0.11 s
Selected for internal refinement : 6 cells (out of 542761)
Edge intersection testing:
    Number of edges             : 1706351
    Number of edges to retest   : 455
    Number of intersected edges : 52843
Refined mesh in = 0.69 s
After refinement shell refinement iteration 11 : cells:542803  faces:1706351  points:621377
Cells per refinement level:
    0	207365
    1	142150
    2	22158
    3	30438
    4	33312
    5	33914
    6	36652
    7	36814

Shell refinement iteration 12
----------------------------

Marked for refinement due to distance to explicit features : 0 cells.
Marked for refinement due to refinement shells             : 0 cells.
Determined cells to refine in = 0.07 s
Selected for internal refinement : 4 cells (out of 542803)
Edge intersection testing:
    Number of edges             : 1706441
    Number of edges to retest   : 318
    Number of intersected edges : 52849
Refined mesh in = 0.71 s
After refinement shell refinement iteration 12 : cells:542831  faces:1706441  points:621409
Cells per refinement level:
    0	207365
    1	142150
    2	22158
    3	30438
    4	33312
    5	33910
    6	36684
    7	36814

Shell refinement iteration 13
----------------------------

Marked for refinement due to distance to explicit features : 0 cells.
Marked for refinement due to refinement shells             : 0 cells.
Determined cells to refine in = 0.09 s
Selected for internal refinement : 0 cells (out of 542831)
Stopping refining since too few cells selected.


Dangling coarse cells refinement iteration 0
--------------------------------------------

Determined cells to refine in = 0 s
Selected for refinement : 0 cells (out of 542831)
Stopping refining since too few cells selected.


Dangling coarse cells refinement iteration 0
--------------------------------------------

Determined cells to refine in = 0.01 s
Selected for refinement : 0 cells (out of 542831)
Stopping refining since too few cells selected.


Refinement transition refinement iteration 0
--------------------------------------------

Determined cells to refine in = 0.01 s
Selected for refinement : 0 cells (out of 542831)
Stopping refining since too few cells selected.


Splitting mesh at surface intersections
---------------------------------------

Introducing baffles for 52849 faces that are intersected by the surface.

Setting cellZones according to locationsInMesh:
Location : (0 0 10)
    cellZone : none

For cellZone none found point (0 0 10) in global region 1 out of 4 regions.
Edge intersection testing:
    Number of edges             : 1740900
    Number of edges to retest   : 345100
    Number of intersected edges : 87196
Created baffles in = 0.65 s


After introducing baffles : cells:542831  faces:1740900  points:621409
Cells per refinement level:
    0	207365
    1	142150
    2	22158
    3	30438
    4	33312
    5	33910
    6	36684
    7	36814

Introducing baffles to block off problem cells
----------------------------------------------

markFacesOnProblemCells : marked 100241 additional internal faces to be converted into baffles.
Analyzed problem cells in = 0.44 s


Introducing baffles to delete problem cells.

Edge intersection testing:
    Number of edges             : 1841141
    Number of edges to retest   : 303040
    Number of intersected edges : 87196
Created baffles in = 0.57 s


After introducing baffles : cells:542831  faces:1841141  points:621409
Cells per refinement level:
    0	207365
    1	142150
    2	22158
    3	30438
    4	33312
    5	33910
    6	36684
    7	36814
Setting cellZones according to locationsInMesh:
Location : (0 0 10)
    cellZone : none

For cellZone none found point (0 0 10) in global region 4200 out of 50069 regions.
Edge intersection testing:
    Number of edges             : 1841141
    Number of edges to retest   : 444789
    Number of intersected edges : 87196

Remove unreachable sections of mesh
-----------------------------------

Keeping all cells containing points 1((0 0 10))
Selected for keeping : 489622 cells.
Edge intersection testing:
    Number of edges             : 1528828
    Number of edges to retest   : 0
    Number of intersected edges : 34433
Split mesh in = 1.29 s


After subsetting : cells:489622  faces:1528828  points:550380
Cells per refinement level:
    0	207365
    1	93699
    2	21104
    3	28710
    4	33312
    5	33784
    6	35840
    7	35808

Introducing zones for interfaces
--------------------------------

Setting cellZones according to locationsInMesh:
Location : (0 0 10)
    cellZone : none

For cellZone none found point (0 0 10) in global region 0 out of 1 regions.
Setting faceZones according to neighbouring cellZones:

Edge intersection testing:
    Number of edges             : 1528828
    Number of edges to retest   : 0
    Number of intersected edges : 34433

Handling cells with snap problems
---------------------------------

Introducing baffles for 34433 faces that are intersected by the surface.

Setting cellZones according to locationsInMesh:
Location : (0 0 10)
    cellZone : none

For cellZone none found point (0 0 10) in global region 0 out of 1 regions.
Edge intersection testing:
    Number of edges             : 1528828
    Number of edges to retest   : 138903
    Number of intersected edges : 34433
Created baffles in = 1 s


After introducing baffles : cells:489622  faces:1528828  points:550380
Cells per refinement level:
    0	207365
    1	93699
    2	21104
    3	28710
    4	33312
    5	33784
    6	35840
    7	35808

Introducing baffles to block off problem cells
----------------------------------------------

markFacesOnProblemCells : marked 0 additional internal faces to be converted into baffles.
Analyzed problem cells in = 0.38 s


Introducing baffles to delete problem cells.

Created baffles in = 0.06 s


After introducing baffles : cells:489622  faces:1528828  points:550380
Cells per refinement level:
    0	207365
    1	93699
    2	21104
    3	28710
    4	33312
    5	33784
    6	35840
    7	35808
Setting cellZones according to locationsInMesh:
Location : (0 0 10)
    cellZone : none

For cellZone none found point (0 0 10) in global region 0 out of 1 regions.
Edge intersection testing:
    Number of edges             : 1528828
    Number of edges to retest   : 138903
    Number of intersected edges : 34433

Remove unreachable sections of mesh
-----------------------------------

Split mesh in = 0.63 s


After subsetting : cells:489622  faces:1528828  points:550380
Cells per refinement level:
    0	207365
    1	93699
    2	21104
    3	28710
    4	33312
    5	33784
    6	35840
    7	35808

Merge free-standing baffles
---------------------------

freeStandingBaffles : detected 2 free-standing baffles out of 2

freeStandingBaffles : detected 0 planar (within 30 degrees) free-standing baffles out of 2

Detected free-standing baffles : 0
Merged free-standing baffles in = 0.1 s


dupNonManifoldPoints : Found : 2 non-manifold points (out of 550380)
Edge intersection testing:
    Number of edges             : 1528828
    Number of edges to retest   : 0
    Number of intersected edges : 34433
Detected unsplittable baffles : 0

Merge refined boundary faces
----------------------------

Merging 69 sets of faces.

Edge intersection testing:
    Number of edges             : 1528699
    Number of edges to retest   : 539
    Number of intersected edges : 34304

Undo iteration 0
----------------
Checking faces in error :
    non-orthogonality > 55  degrees                        : 5224
    faces with face pyramid volume < 1e-13                 : 0
    faces with face-decomposition tet quality < 1e-15      : 0
    faces with concavity > 80  degrees                     : 0
    faces with skewness > 4   (internal) or 20  (boundary) : 0
    faces with interpolation weights (0..1)  < 0.05        : 0
    faces with volume ratio of neighbour cells < 0.01      : 0
    faces with face twist < 0.02                           : 0
    faces on cells with determinant < 0.001                : 0
Masters that need to be restored:0

Merging all points on surface that
- are used by only two boundary faces and
- make an angle with a cosine of more than 0.707107.

Removing 92 straight edge points ...

Edge intersection testing:
    Number of edges             : 1528699
    Number of edges to retest   : 696
    Number of intersected edges : 34304

Undo iteration 0
----------------
Checking faces in error :
    non-orthogonality > 55  degrees                        : 5224
    faces with face pyramid volume < 1e-13                 : 0
    faces with face-decomposition tet quality < 1e-15      : 0
    faces with concavity > 80  degrees                     : 0
    faces with skewness > 4   (internal) or 20  (boundary) : 0
    faces with interpolation weights (0..1)  < 0.05        : 0
    faces with volume ratio of neighbour cells < 0.01      : 0
    faces with face twist < 0.02                           : 0
    faces on cells with determinant < 0.001                : 0
Detected 0 error faces on boundaries that have been merged. These will be restored to their original faces.

Detected 5224 error faces in mesh. Restoring neighbours of faces in error.

Edge intersection testing:
    Number of edges             : 1528699
    Number of edges to retest   : 46505
    Number of intersected edges : 34304
Refined mesh : cells:489622  faces:1528699  points:550260
Cells per refinement level:
    0	207365
    1	93699
    2	21104
    3	28710
    4	33312
    5	33784
    6	35840
    7	35808
Writing mesh to time constant
Wrote mesh in = 0.04 s.
Mesh refined in = 31.1 s.

Morphing phase
--------------

Duplicating 0 points on faceZones of type boundary
Snapping to features in 25 iterations ...
Constructing mesh displacer ...
Using mesh parameters 
{
    maxNonOrtho     55;
    maxBoundarySkewness 20;
    maxInternalSkewness 4;
    maxConcave      80;
    minVol          1e-13;
    minTetQuality   1e-15;
    minArea         -1;
    minTwist        0.02;
    minDeterminant  0.001;
    minFaceWeight   0.05;
    minVolRatio     0.01;
    minTriangleTwist -1;
    minEdgeLength   -1;
    relaxed
    {
        maxNonOrtho     60;
    }
    nSmoothScale    4;
    errorReduction  0.75;
}


Checking initial mesh ...
Checking faces in error :
    non-orthogonality > 55  degrees                        : 5224
    faces with face pyramid volume < 1e-13                 : 0
    faces with face-decomposition tet quality < 1e-15      : 0
    faces with concavity > 80  degrees                     : 0
    faces with skewness > 4   (internal) or 20  (boundary) : 0
    faces with interpolation weights (0..1)  < 0.05        : 0
    faces with volume ratio of neighbour cells < 0.01      : 0
    faces with face twist < 0.02                           : 0
    faces on cells with determinant < 0.001                : 0
Detected 5224 illegal faces (concave, zero area or negative cell pyramid volume)
Checked initial mesh in = 3.62 s


Smoothing patch points ...
Smoothing iteration 0
Found 0 non-manifold point(s).

Scaling iteration 0
Moving mesh using displacement scaling : min:1  max:1
Checking faces in error :
    non-orthogonality > 55  degrees                        : 5346
    faces with face pyramid volume < 1e-13                 : 0
    faces with face-decomposition tet quality < 1e-15      : 0
    faces with concavity > 80  degrees                     : 0
    faces with skewness > 4   (internal) or 20  (boundary) : 0
    faces with interpolation weights (0..1)  < 0.05        : 0
    faces with volume ratio of neighbour cells < 0.01      : 0
    faces with face twist < 0.02                           : 0
    faces on cells with determinant < 0.001                : 0

Scaling iteration 1
Moving mesh using displacement scaling : min:0.75  max:1
Checking faces in error :
    non-orthogonality > 55  degrees                        : 5326
    faces with face pyramid volume < 1e-13                 : 0
    faces with face-decomposition tet quality < 1e-15      : 0
    faces with concavity > 80  degrees                     : 0
    faces with skewness > 4   (internal) or 20  (boundary) : 0
    faces with interpolation weights (0..1)  < 0.05        : 0
    faces with volume ratio of neighbour cells < 0.01      : 0
    faces with face twist < 0.02                           : 0
    faces on cells with determinant < 0.001                : 0

Scaling iteration 2
Moving mesh using displacement scaling : min:0.5625  max:1
Checking faces in error :
    non-orthogonality > 55  degrees                        : 5297
    faces with face pyramid volume < 1e-13                 : 0
    faces with face-decomposition tet quality < 1e-15      : 0
    faces with concavity > 80  degrees                     : 0
    faces with skewness > 4   (internal) or 20  (boundary) : 0
    faces with interpolation weights (0..1)  < 0.05        : 0
    faces with volume ratio of neighbour cells < 0.01      : 0
    faces with face twist < 0.02                           : 0
    faces on cells with determinant < 0.001                : 0

Scaling iteration 3
Moving mesh using displacement scaling : min:0.421875  max:1
Checking faces in error :
    non-orthogonality > 55  degrees                        : 5290
    faces with face pyramid volume < 1e-13                 : 0
    faces with face-decomposition tet quality < 1e-15      : 0
    faces with concavity > 80  degrees                     : 0
    faces with skewness > 4   (internal) or 20  (boundary) : 0
    faces with interpolation weights (0..1)  < 0.05        : 0
    faces with volume ratio of neighbour cells < 0.01      : 0
    faces with face twist < 0.02                           : 0
    faces on cells with determinant < 0.001                : 0

Scaling iteration 4
Moving mesh using displacement scaling : min:0.316406  max:1
Checking faces in error :
    non-orthogonality > 55  degrees                        : 5287
    faces with face pyramid volume < 1e-13                 : 0
    faces with face-decomposition tet quality < 1e-15      : 0
    faces with concavity > 80  degrees                     : 0
    faces with skewness > 4   (internal) or 20  (boundary) : 0
    faces with interpolation weights (0..1)  < 0.05        : 0
    faces with volume ratio of neighbour cells < 0.01      : 0
    faces with face twist < 0.02                           : 0
    faces on cells with determinant < 0.001                : 0

Scaling iteration 5
Moving mesh using displacement scaling : min:0.237305  max:1
Checking faces in error :
    non-orthogonality > 55  degrees                        : 5278
    faces with face pyramid volume < 1e-13                 : 0
    faces with face-decomposition tet quality < 1e-15      : 0
    faces with concavity > 80  degrees                     : 0
    faces with skewness > 4   (internal) or 20  (boundary) : 0
    faces with interpolation weights (0..1)  < 0.05        : 0
    faces with volume ratio of neighbour cells < 0.01      : 0
    faces with face twist < 0.02                           : 0
    faces on cells with determinant < 0.001                : 0

Scaling iteration 6
Moving mesh using displacement scaling : min:0.177979  max:1
Checking faces in error :
    non-orthogonality > 55  degrees                        : 5280
    faces with face pyramid volume < 1e-13                 : 0
    faces with face-decomposition tet quality < 1e-15      : 0
    faces with concavity > 80  degrees                     : 0
    faces with skewness > 4   (internal) or 20  (boundary) : 0
    faces with interpolation weights (0..1)  < 0.05        : 0
    faces with volume ratio of neighbour cells < 0.01      : 0
    faces with face twist < 0.02                           : 0
    faces on cells with determinant < 0.001                : 0

Scaling iteration 7
Moving mesh using displacement scaling : min:0.133484  max:1
Checking faces in error :
    non-orthogonality > 55  degrees                        : 5276
    faces with face pyramid volume < 1e-13                 : 0
    faces with face-decomposition tet quality < 1e-15      : 0
    faces with concavity > 80  degrees                     : 0
    faces with skewness > 4   (internal) or 20  (boundary) : 0
    faces with interpolation weights (0..1)  < 0.05        : 0
    faces with volume ratio of neighbour cells < 0.01      : 0
    faces with face twist < 0.02                           : 0
    faces on cells with determinant < 0.001                : 0

Scaling iteration 8
Moving mesh using displacement scaling : min:0.100113  max:1
Checking faces in error :
    non-orthogonality > 55  degrees                        : 5272
    faces with face pyramid volume < 1e-13                 : 0
    faces with face-decomposition tet quality < 1e-15      : 0
    faces with concavity > 80  degrees                     : 0
    faces with skewness > 4   (internal) or 20  (boundary) : 0
    faces with interpolation weights (0..1)  < 0.05        : 0
    faces with volume ratio of neighbour cells < 0.01      : 0
    faces with face twist < 0.02                           : 0
    faces on cells with determinant < 0.001                : 0

Scaling iteration 9
Moving mesh using displacement scaling : min:0.0750847  max:1
Checking faces in error :
    non-orthogonality > 55  degrees                        : 5272
    faces with face pyramid volume < 1e-13                 : 0
    faces with face-decomposition tet quality < 1e-15      : 0
    faces with concavity > 80  degrees                     : 0
    faces with skewness > 4   (internal) or 20  (boundary) : 0
    faces with interpolation weights (0..1)  < 0.05        : 0
    faces with volume ratio of neighbour cells < 0.01      : 0
    faces with face twist < 0.02                           : 0
    faces on cells with determinant < 0.001                : 0

Scaling iteration 10
Displacement scaling for error reduction set to 0.
Moving mesh using displacement scaling : min:0.0563135  max:1
Checking faces in error :
    non-orthogonality > 55  degrees                        : 5273
    faces with face pyramid volume < 1e-13                 : 0
    faces with face-decomposition tet quality < 1e-15      : 0
    faces with concavity > 80  degrees                     : 0
    faces with skewness > 4   (internal) or 20  (boundary) : 0
    faces with interpolation weights (0..1)  < 0.05        : 0
    faces with volume ratio of neighbour cells < 0.01      : 0
    faces with face twist < 0.02                           : 0
    faces on cells with determinant < 0.001                : 0

Scaling iteration 11
Moving mesh using displacement scaling : min:0  max:1
Checking faces in error :
    non-orthogonality > 55  degrees                        : 5224
    faces with face pyramid volume < 1e-13                 : 0
    faces with face-decomposition tet quality < 1e-15      : 0
    faces with concavity > 80  degrees                     : 0
    faces with skewness > 4   (internal) or 20  (boundary) : 0
    faces with interpolation weights (0..1)  < 0.05        : 0
    faces with volume ratio of neighbour cells < 0.01      : 0
    faces with face twist < 0.02                           : 0
    faces on cells with determinant < 0.001                : 0
Successfully moved mesh

Smoothing iteration 1
Found 0 non-manifold point(s).

Scaling iteration 0
Moving mesh using displacement scaling : min:1  max:1
Checking faces in error :
    non-orthogonality > 55  degrees                        : 5354
    faces with face pyramid volume < 1e-13                 : 0
    faces with face-decomposition tet quality < 1e-15      : 0
    faces with concavity > 80  degrees                     : 0
    faces with skewness > 4   (internal) or 20  (boundary) : 0
    faces with interpolation weights (0..1)  < 0.05        : 0
    faces with volume ratio of neighbour cells < 0.01      : 0
    faces with face twist < 0.02                           : 0
    faces on cells with determinant < 0.001                : 0

Scaling iteration 1
Moving mesh using displacement scaling : min:0.75  max:1
Checking faces in error :
    non-orthogonality > 55  degrees                        : 5339
    faces with face pyramid volume < 1e-13                 : 0
    faces with face-decomposition tet quality < 1e-15      : 0
    faces with concavity > 80  degrees                     : 0
    faces with skewness > 4   (internal) or 20  (boundary) : 0
    faces with interpolation weights (0..1)  < 0.05        : 0
    faces with volume ratio of neighbour cells < 0.01      : 0
    faces with face twist < 0.02                           : 0
    faces on cells with determinant < 0.001                : 0

Scaling iteration 2
Moving mesh using displacement scaling : min:0.5625  max:1
Checking faces in error :
    non-orthogonality > 55  degrees                        : 5330
    faces with face pyramid volume < 1e-13                 : 0
    faces with face-decomposition tet quality < 1e-15      : 0
    faces with concavity > 80  degrees                     : 0
    faces with skewness > 4   (internal) or 20  (boundary) : 0
    faces with interpolation weights (0..1)  < 0.05        : 0
    faces with volume ratio of neighbour cells < 0.01      : 0
    faces with face twist < 0.02                           : 0
    faces on cells with determinant < 0.001                : 0

Scaling iteration 3
Moving mesh using displacement scaling : min:0.421875  max:1
Checking faces in error :
    non-orthogonality > 55  degrees                        : 5322
    faces with face pyramid volume < 1e-13                 : 0
    faces with face-decomposition tet quality < 1e-15      : 0
    faces with concavity > 80  degrees                     : 0
    faces with skewness > 4   (internal) or 20  (boundary) : 0
    faces with interpolation weights (0..1)  < 0.05        : 0
    faces with volume ratio of neighbour cells < 0.01      : 0
    faces with face twist < 0.02                           : 0
    faces on cells with determinant < 0.001                : 0

Scaling iteration 4
Moving mesh using displacement scaling : min:0.316406  max:1
Checking faces in error :
    non-orthogonality > 55  degrees                        : 5316
    faces with face pyramid volume < 1e-13                 : 0
    faces with face-decomposition tet quality < 1e-15      : 0
    faces with concavity > 80  degrees                     : 0
    faces with skewness > 4   (internal) or 20  (boundary) : 0
    faces with interpolation weights (0..1)  < 0.05        : 0
    faces with volume ratio of neighbour cells < 0.01      : 0
    faces with face twist < 0.02                           : 0
    faces on cells with determinant < 0.001                : 0

Scaling iteration 5
Moving mesh using displacement scaling : min:0.237305  max:1
Checking faces in error :
    non-orthogonality > 55  degrees                        : 5306
    faces with face pyramid volume < 1e-13                 : 0
    faces with face-decomposition tet quality < 1e-15      : 0
    faces with concavity > 80  degrees                     : 0
    faces with skewness > 4   (internal) or 20  (boundary) : 0
    faces with interpolation weights (0..1)  < 0.05        : 0
    faces with volume ratio of neighbour cells < 0.01      : 0
    faces with face twist < 0.02                           : 0
    faces on cells with determinant < 0.001                : 0

Scaling iteration 6
Moving mesh using displacement scaling : min:0.177979  max:1
Checking faces in error :
    non-orthogonality > 55  degrees                        : 5302
    faces with face pyramid volume < 1e-13                 : 0
    faces with face-decomposition tet quality < 1e-15      : 0
    faces with concavity > 80  degrees                     : 0
    faces with skewness > 4   (internal) or 20  (boundary) : 0
    faces with interpolation weights (0..1)  < 0.05        : 0
    faces with volume ratio of neighbour cells < 0.01      : 0
    faces with face twist < 0.02                           : 0
    faces on cells with determinant < 0.001                : 0

Scaling iteration 7
Moving mesh using displacement scaling : min:0.133484  max:1
Checking faces in error :
    non-orthogonality > 55  degrees                        : 5300
    faces with face pyramid volume < 1e-13                 : 0
    faces with face-decomposition tet quality < 1e-15      : 0
    faces with concavity > 80  degrees                     : 0
    faces with skewness > 4   (internal) or 20  (boundary) : 0
    faces with interpolation weights (0..1)  < 0.05        : 0
    faces with volume ratio of neighbour cells < 0.01      : 0
    faces with face twist < 0.02                           : 0
    faces on cells with determinant < 0.001                : 0

Scaling iteration 8
Moving mesh using displacement scaling : min:0.100113  max:1
Checking faces in error :
    non-orthogonality > 55  degrees                        : 5297
    faces with face pyramid volume < 1e-13                 : 0
    faces with face-decomposition tet quality < 1e-15      : 0
    faces with concavity > 80  degrees                     : 0
    faces with skewness > 4   (internal) or 20  (boundary) : 0
    faces with interpolation weights (0..1)  < 0.05        : 0
    faces with volume ratio of neighbour cells < 0.01      : 0
    faces with face twist < 0.02                           : 0
    faces on cells with determinant < 0.001                : 0

Scaling iteration 9
Moving mesh using displacement scaling : min:0.0750847  max:1
Checking faces in error :
    non-orthogonality > 55  degrees                        : 5292
    faces with face pyramid volume < 1e-13                 : 0
    faces with face-decomposition tet quality < 1e-15      : 0
    faces with concavity > 80  degrees                     : 0
    faces with skewness > 4   (internal) or 20  (boundary) : 0
    faces with interpolation weights (0..1)  < 0.05        : 0
    faces with volume ratio of neighbour cells < 0.01      : 0
    faces with face twist < 0.02                           : 0
    faces on cells with determinant < 0.001                : 0

Scaling iteration 10
Displacement scaling for error reduction set to 0.
Moving mesh using displacement scaling : min:0.0563135  max:1
Checking faces in error :
    non-orthogonality > 55  degrees                        : 5289
    faces with face pyramid volume < 1e-13                 : 0
    faces with face-decomposition tet quality < 1e-15      : 0
    faces with concavity > 80  degrees                     : 0
    faces with skewness > 4   (internal) or 20  (boundary) : 0
    faces with interpolation weights (0..1)  < 0.05        : 0
    faces with volume ratio of neighbour cells < 0.01      : 0
    faces with face twist < 0.02                           : 0
    faces on cells with determinant < 0.001                : 0

Scaling iteration 11
Moving mesh using displacement scaling : min:0  max:1
Checking faces in error :
    non-orthogonality > 55  degrees                        : 5224
    faces with face pyramid volume < 1e-13                 : 0
    faces with face-decomposition tet quality < 1e-15      : 0
    faces with concavity > 80  degrees                     : 0
    faces with skewness > 4   (internal) or 20  (boundary) : 0
    faces with interpolation weights (0..1)  < 0.05        : 0
    faces with volume ratio of neighbour cells < 0.01      : 0
    faces with face twist < 0.02                           : 0
    faces on cells with determinant < 0.001                : 0
Successfully moved mesh

Smoothing iteration 2
Found 0 non-manifold point(s).

Scaling iteration 0
Moving mesh using displacement scaling : min:1  max:1
Checking faces in error :
    non-orthogonality > 55  degrees                        : 5349
    faces with face pyramid volume < 1e-13                 : 0
    faces with face-decomposition tet quality < 1e-15      : 0
    faces with concavity > 80  degrees                     : 0
    faces with skewness > 4   (internal) or 20  (boundary) : 0
    faces with interpolation weights (0..1)  < 0.05        : 0
    faces with volume ratio of neighbour cells < 0.01      : 0
    faces with face twist < 0.02                           : 0
    faces on cells with determinant < 0.001                : 0

Scaling iteration 1
Moving mesh using displacement scaling : min:0.75  max:1
Checking faces in error :
    non-orthogonality > 55  degrees                        : 5338
    faces with face pyramid volume < 1e-13                 : 0
    faces with face-decomposition tet quality < 1e-15      : 0
    faces with concavity > 80  degrees                     : 0
    faces with skewness > 4   (internal) or 20  (boundary) : 0
    faces with interpolation weights (0..1)  < 0.05        : 0
    faces with volume ratio of neighbour cells < 0.01      : 0
    faces with face twist < 0.02                           : 0
    faces on cells with determinant < 0.001                : 0

Scaling iteration 2
Moving mesh using displacement scaling : min:0.5625  max:1
Checking faces in error :
    non-orthogonality > 55  degrees                        : 5331
    faces with face pyramid volume < 1e-13                 : 0
    faces with face-decomposition tet quality < 1e-15      : 0
    faces with concavity > 80  degrees                     : 0
    faces with skewness > 4   (internal) or 20  (boundary) : 0
    faces with interpolation weights (0..1)  < 0.05        : 0
    faces with volume ratio of neighbour cells < 0.01      : 0
    faces with face twist < 0.02                           : 0
    faces on cells with determinant < 0.001                : 0

Scaling iteration 3
Moving mesh using displacement scaling : min:0.421875  max:1
Checking faces in error :
    non-orthogonality > 55  degrees                        : 5325
    faces with face pyramid volume < 1e-13                 : 0
    faces with face-decomposition tet quality < 1e-15      : 0
    faces with concavity > 80  degrees                     : 0
    faces with skewness > 4   (internal) or 20  (boundary) : 0
    faces with interpolation weights (0..1)  < 0.05        : 0
    faces with volume ratio of neighbour cells < 0.01      : 0
    faces with face twist < 0.02                           : 0
    faces on cells with determinant < 0.001                : 0

Scaling iteration 4
Moving mesh using displacement scaling : min:0.316406  max:1
Checking faces in error :
    non-orthogonality > 55  degrees                        : 5319
    faces with face pyramid volume < 1e-13                 : 0
    faces with face-decomposition tet quality < 1e-15      : 0
    faces with concavity > 80  degrees                     : 0
    faces with skewness > 4   (internal) or 20  (boundary) : 0
    faces with interpolation weights (0..1)  < 0.05        : 0
    faces with volume ratio of neighbour cells < 0.01      : 0
    faces with face twist < 0.02                           : 0
    faces on cells with determinant < 0.001                : 0

Scaling iteration 5
Moving mesh using displacement scaling : min:0.237305  max:1
Checking faces in error :
    non-orthogonality > 55  degrees                        : 5316
    faces with face pyramid volume < 1e-13                 : 0
    faces with face-decomposition tet quality < 1e-15      : 0
    faces with concavity > 80  degrees                     : 0
    faces with skewness > 4   (internal) or 20  (boundary) : 0
    faces with interpolation weights (0..1)  < 0.05        : 0
    faces with volume ratio of neighbour cells < 0.01      : 0
    faces with face twist < 0.02                           : 0
    faces on cells with determinant < 0.001                : 0

Scaling iteration 6
Moving mesh using displacement scaling : min:0.177979  max:1
Checking faces in error :
    non-orthogonality > 55  degrees                        : 5311
    faces with face pyramid volume < 1e-13                 : 0
    faces with face-decomposition tet quality < 1e-15      : 0
    faces with concavity > 80  degrees                     : 0
    faces with skewness > 4   (internal) or 20  (boundary) : 0
    faces with interpolation weights (0..1)  < 0.05        : 0
    faces with volume ratio of neighbour cells < 0.01      : 0
    faces with face twist < 0.02                           : 0
    faces on cells with determinant < 0.001                : 0

Scaling iteration 7
Moving mesh using displacement scaling : min:0.133484  max:1
Checking faces in error :
    non-orthogonality > 55  degrees                        : 5308
    faces with face pyramid volume < 1e-13                 : 0
    faces with face-decomposition tet quality < 1e-15      : 0
    faces with concavity > 80  degrees                     : 0
    faces with skewness > 4   (internal) or 20  (boundary) : 0
    faces with interpolation weights (0..1)  < 0.05        : 0
    faces with volume ratio of neighbour cells < 0.01      : 0
    faces with face twist < 0.02                           : 0
    faces on cells with determinant < 0.001                : 0

Scaling iteration 8
Moving mesh using displacement scaling : min:0.100113  max:1
Checking faces in error :
    non-orthogonality > 55  degrees                        : 5302
    faces with face pyramid volume < 1e-13                 : 0
    faces with face-decomposition tet quality < 1e-15      : 0
    faces with concavity > 80  degrees                     : 0
    faces with skewness > 4   (internal) or 20  (boundary) : 0
    faces with interpolation weights (0..1)  < 0.05        : 0
    faces with volume ratio of neighbour cells < 0.01      : 0
    faces with face twist < 0.02                           : 0
    faces on cells with determinant < 0.001                : 0

Scaling iteration 9
Moving mesh using displacement scaling : min:0.0750847  max:1
Checking faces in error :
    non-orthogonality > 55  degrees                        : 5298
    faces with face pyramid volume < 1e-13                 : 0
    faces with face-decomposition tet quality < 1e-15      : 0
    faces with concavity > 80  degrees                     : 0
    faces with skewness > 4   (internal) or 20  (boundary) : 0
    faces with interpolation weights (0..1)  < 0.05        : 0
    faces with volume ratio of neighbour cells < 0.01      : 0
    faces with face twist < 0.02                           : 0
    faces on cells with determinant < 0.001                : 0

Scaling iteration 10
Displacement scaling for error reduction set to 0.
Moving mesh using displacement scaling : min:0.0563135  max:1
Checking faces in error :
    non-orthogonality > 55  degrees                        : 5297
    faces with face pyramid volume < 1e-13                 : 0
    faces with face-decomposition tet quality < 1e-15      : 0
    faces with concavity > 80  degrees                     : 0
    faces with skewness > 4   (internal) or 20  (boundary) : 0
    faces with interpolation weights (0..1)  < 0.05        : 0
    faces with volume ratio of neighbour cells < 0.01      : 0
    faces with face twist < 0.02                           : 0
    faces on cells with determinant < 0.001                : 0

Scaling iteration 11
Moving mesh using displacement scaling : min:0  max:1
Checking faces in error :
    non-orthogonality > 55  degrees                        : 5224
    faces with face pyramid volume < 1e-13                 : 0
    faces with face-decomposition tet quality < 1e-15      : 0
    faces with concavity > 80  degrees                     : 0
    faces with skewness > 4   (internal) or 20  (boundary) : 0
    faces with interpolation weights (0..1)  < 0.05        : 0
    faces with volume ratio of neighbour cells < 0.01      : 0
    faces with face twist < 0.02                           : 0
    faces on cells with determinant < 0.001                : 0
Successfully moved mesh

Smoothing iteration 3
Found 0 non-manifold point(s).

Scaling iteration 0
Moving mesh using displacement scaling : min:1  max:1
Checking faces in error :
    non-orthogonality > 55  degrees                        : 5348
    faces with face pyramid volume < 1e-13                 : 0
    faces with face-decomposition tet quality < 1e-15      : 0
    faces with concavity > 80  degrees                     : 0
    faces with skewness > 4   (internal) or 20  (boundary) : 0
    faces with interpolation weights (0..1)  < 0.05        : 0
    faces with volume ratio of neighbour cells < 0.01      : 0
    faces with face twist < 0.02                           : 0
    faces on cells with determinant < 0.001                : 0

Scaling iteration 1
Moving mesh using displacement scaling : min:0.75  max:1
Checking faces in error :
    non-orthogonality > 55  degrees                        : 5337
    faces with face pyramid volume < 1e-13                 : 0
    faces with face-decomposition tet quality < 1e-15      : 0
    faces with concavity > 80  degrees                     : 0
    faces with skewness > 4   (internal) or 20  (boundary) : 0
    faces with interpolation weights (0..1)  < 0.05        : 0
    faces with volume ratio of neighbour cells < 0.01      : 0
    faces with face twist < 0.02                           : 0
    faces on cells with determinant < 0.001                : 0

Scaling iteration 2
Moving mesh using displacement scaling : min:0.5625  max:1
Checking faces in error :
    non-orthogonality > 55  degrees                        : 5330
    faces with face pyramid volume < 1e-13                 : 0
    faces with face-decomposition tet quality < 1e-15      : 0
    faces with concavity > 80  degrees                     : 0
    faces with skewness > 4   (internal) or 20  (boundary) : 0
    faces with interpolation weights (0..1)  < 0.05        : 0
    faces with volume ratio of neighbour cells < 0.01      : 0
    faces with face twist < 0.02                           : 0
    faces on cells with determinant < 0.001                : 0

Scaling iteration 3
Moving mesh using displacement scaling : min:0.421875  max:1
Checking faces in error :
    non-orthogonality > 55  degrees                        : 5324
    faces with face pyramid volume < 1e-13                 : 0
    faces with face-decomposition tet quality < 1e-15      : 0
    faces with concavity > 80  degrees                     : 0
    faces with skewness > 4   (internal) or 20  (boundary) : 0
    faces with interpolation weights (0..1)  < 0.05        : 0
    faces with volume ratio of neighbour cells < 0.01      : 0
    faces with face twist < 0.02                           : 0
    faces on cells with determinant < 0.001                : 0

Scaling iteration 4
Moving mesh using displacement scaling : min:0.316406  max:1
Checking faces in error :
    non-orthogonality > 55  degrees                        : 5320
    faces with face pyramid volume < 1e-13                 : 0
    faces with face-decomposition tet quality < 1e-15      : 0
    faces with concavity > 80  degrees                     : 0
    faces with skewness > 4   (internal) or 20  (boundary) : 0
    faces with interpolation weights (0..1)  < 0.05        : 0
    faces with volume ratio of neighbour cells < 0.01      : 0
    faces with face twist < 0.02                           : 0
    faces on cells with determinant < 0.001                : 0

Scaling iteration 5
Moving mesh using displacement scaling : min:0.237305  max:1
Checking faces in error :
    non-orthogonality > 55  degrees                        : 5316
    faces with face pyramid volume < 1e-13                 : 0
    faces with face-decomposition tet quality < 1e-15      : 0
    faces with concavity > 80  degrees                     : 0
    faces with skewness > 4   (internal) or 20  (boundary) : 0
    faces with interpolation weights (0..1)  < 0.05        : 0
    faces with volume ratio of neighbour cells < 0.01      : 0
    faces with face twist < 0.02                           : 0
    faces on cells with determinant < 0.001                : 0

Scaling iteration 6
Moving mesh using displacement scaling : min:0.177979  max:1
Checking faces in error :
    non-orthogonality > 55  degrees                        : 5315
    faces with face pyramid volume < 1e-13                 : 0
    faces with face-decomposition tet quality < 1e-15      : 0
    faces with concavity > 80  degrees                     : 0
    faces with skewness > 4   (internal) or 20  (boundary) : 0
    faces with interpolation weights (0..1)  < 0.05        : 0
    faces with volume ratio of neighbour cells < 0.01      : 0
    faces with face twist < 0.02                           : 0
    faces on cells with determinant < 0.001                : 0

Scaling iteration 7
Moving mesh using displacement scaling : min:0.133484  max:1
Checking faces in error :
    non-orthogonality > 55  degrees                        : 5306
    faces with face pyramid volume < 1e-13                 : 0
    faces with face-decomposition tet quality < 1e-15      : 0
    faces with concavity > 80  degrees                     : 0
    faces with skewness > 4   (internal) or 20  (boundary) : 0
    faces with interpolation weights (0..1)  < 0.05        : 0
    faces with volume ratio of neighbour cells < 0.01      : 0
    faces with face twist < 0.02                           : 0
    faces on cells with determinant < 0.001                : 0

Scaling iteration 8
Moving mesh using displacement scaling : min:0.100113  max:1
Checking faces in error :
    non-orthogonality > 55  degrees                        : 5302
    faces with face pyramid volume < 1e-13                 : 0
    faces with face-decomposition tet quality < 1e-15      : 0
    faces with concavity > 80  degrees                     : 0
    faces with skewness > 4   (internal) or 20  (boundary) : 0
    faces with interpolation weights (0..1)  < 0.05        : 0
    faces with volume ratio of neighbour cells < 0.01      : 0
    faces with face twist < 0.02                           : 0
    faces on cells with determinant < 0.001                : 0

Scaling iteration 9
Moving mesh using displacement scaling : min:0.0750847  max:1
Checking faces in error :
    non-orthogonality > 55  degrees                        : 5300
    faces with face pyramid volume < 1e-13                 : 0
    faces with face-decomposition tet quality < 1e-15      : 0
    faces with concavity > 80  degrees                     : 0
    faces with skewness > 4   (internal) or 20  (boundary) : 0
    faces with interpolation weights (0..1)  < 0.05        : 0
    faces with volume ratio of neighbour cells < 0.01      : 0
    faces with face twist < 0.02                           : 0
    faces on cells with determinant < 0.001                : 0

Scaling iteration 10
Displacement scaling for error reduction set to 0.
Moving mesh using displacement scaling : min:0.0563135  max:1
Checking faces in error :
    non-orthogonality > 55  degrees                        : 5298
    faces with face pyramid volume < 1e-13                 : 0
    faces with face-decomposition tet quality < 1e-15      : 0
    faces with concavity > 80  degrees                     : 0
    faces with skewness > 4   (internal) or 20  (boundary) : 0
    faces with interpolation weights (0..1)  < 0.05        : 0
    faces with volume ratio of neighbour cells < 0.01      : 0
    faces with face twist < 0.02                           : 0
    faces on cells with determinant < 0.001                : 0

Scaling iteration 11
Moving mesh using displacement scaling : min:0  max:1
Checking faces in error :
    non-orthogonality > 55  degrees                        : 5223
    faces with face pyramid volume < 1e-13                 : 0
    faces with face-decomposition tet quality < 1e-15      : 0
    faces with concavity > 80  degrees                     : 0
    faces with skewness > 4   (internal) or 20  (boundary) : 0
    faces with interpolation weights (0..1)  < 0.05        : 0
    faces with volume ratio of neighbour cells < 0.01      : 0
    faces with face twist < 0.02                           : 0
    faces on cells with determinant < 0.001                : 0
Successfully moved mesh

Smoothing iteration 4
Found 0 non-manifold point(s).

Scaling iteration 0
Moving mesh using displacement scaling : min:1  max:1
Checking faces in error :
    non-orthogonality > 55  degrees                        : 5348
    faces with face pyramid volume < 1e-13                 : 0
    faces with face-decomposition tet quality < 1e-15      : 0
    faces with concavity > 80  degrees                     : 0
    faces with skewness > 4   (internal) or 20  (boundary) : 0
    faces with interpolation weights (0..1)  < 0.05        : 0
    faces with volume ratio of neighbour cells < 0.01      : 0
    faces with face twist < 0.02                           : 0
    faces on cells with determinant < 0.001                : 0

Scaling iteration 1
Moving mesh using displacement scaling : min:0.75  max:1
Checking faces in error :
    non-orthogonality > 55  degrees                        : 5336
    faces with face pyramid volume < 1e-13                 : 0
    faces with face-decomposition tet quality < 1e-15      : 0
    faces with concavity > 80  degrees                     : 0
    faces with skewness > 4   (internal) or 20  (boundary) : 0
    faces with interpolation weights (0..1)  < 0.05        : 0
    faces with volume ratio of neighbour cells < 0.01      : 0
    faces with face twist < 0.02                           : 0
    faces on cells with determinant < 0.001                : 0

Scaling iteration 2
Moving mesh using displacement scaling : min:0.5625  max:1
Checking faces in error :
    non-orthogonality > 55  degrees                        : 5329
    faces with face pyramid volume < 1e-13                 : 0
    faces with face-decomposition tet quality < 1e-15      : 0
    faces with concavity > 80  degrees                     : 0
    faces with skewness > 4   (internal) or 20  (boundary) : 0
    faces with interpolation weights (0..1)  < 0.05        : 0
    faces with volume ratio of neighbour cells < 0.01      : 0
    faces with face twist < 0.02                           : 0
    faces on cells with determinant < 0.001                : 0

Scaling iteration 3
Moving mesh using displacement scaling : min:0.421875  max:1
Checking faces in error :
    non-orthogonality > 55  degrees                        : 5326
    faces with face pyramid volume < 1e-13                 : 0
    faces with face-decomposition tet quality < 1e-15      : 0
    faces with concavity > 80  degrees                     : 0
    faces with skewness > 4   (internal) or 20  (boundary) : 0
    faces with interpolation weights (0..1)  < 0.05        : 0
    faces with volume ratio of neighbour cells < 0.01      : 0
    faces with face twist < 0.02                           : 0
    faces on cells with determinant < 0.001                : 0

Scaling iteration 4
Moving mesh using displacement scaling : min:0.316406  max:1
Checking faces in error :
    non-orthogonality > 55  degrees                        : 5321
    faces with face pyramid volume < 1e-13                 : 0
    faces with face-decomposition tet quality < 1e-15      : 0
    faces with concavity > 80  degrees                     : 0
    faces with skewness > 4   (internal) or 20  (boundary) : 0
    faces with interpolation weights (0..1)  < 0.05        : 0
    faces with volume ratio of neighbour cells < 0.01      : 0
    faces with face twist < 0.02                           : 0
    faces on cells with determinant < 0.001                : 0

Scaling iteration 5
Moving mesh using displacement scaling : min:0.237305  max:1
Checking faces in error :
    non-orthogonality > 55  degrees                        : 5316
    faces with face pyramid volume < 1e-13                 : 0
    faces with face-decomposition tet quality < 1e-15      : 0
    faces with concavity > 80  degrees                     : 0
    faces with skewness > 4   (internal) or 20  (boundary) : 0
    faces with interpolation weights (0..1)  < 0.05        : 0
    faces with volume ratio of neighbour cells < 0.01      : 0
    faces with face twist < 0.02                           : 0
    faces on cells with determinant < 0.001                : 0

Scaling iteration 6
Moving mesh using displacement scaling : min:0.177979  max:1
Checking faces in error :
    non-orthogonality > 55  degrees                        : 5314
    faces with face pyramid volume < 1e-13                 : 0
    faces with face-decomposition tet quality < 1e-15      : 0
    faces with concavity > 80  degrees                     : 0
    faces with skewness > 4   (internal) or 20  (boundary) : 0
    faces with interpolation weights (0..1)  < 0.05        : 0
    faces with volume ratio of neighbour cells < 0.01      : 0
    faces with face twist < 0.02                           : 0
    faces on cells with determinant < 0.001                : 0

Scaling iteration 7
Moving mesh using displacement scaling : min:0.133484  max:1
Checking faces in error :
    non-orthogonality > 55  degrees                        : 5307
    faces with face pyramid volume < 1e-13                 : 0
    faces with face-decomposition tet quality < 1e-15      : 0
    faces with concavity > 80  degrees                     : 0
    faces with skewness > 4   (internal) or 20  (boundary) : 0
    faces with interpolation weights (0..1)  < 0.05        : 0
    faces with volume ratio of neighbour cells < 0.01      : 0
    faces with face twist < 0.02                           : 0
    faces on cells with determinant < 0.001                : 0

Scaling iteration 8
Moving mesh using displacement scaling : min:0.100113  max:1
Checking faces in error :
    non-orthogonality > 55  degrees                        : 5304
    faces with face pyramid volume < 1e-13                 : 0
    faces with face-decomposition tet quality < 1e-15      : 0
    faces with concavity > 80  degrees                     : 0
    faces with skewness > 4   (internal) or 20  (boundary) : 0
    faces with interpolation weights (0..1)  < 0.05        : 0
    faces with volume ratio of neighbour cells < 0.01      : 0
    faces with face twist < 0.02                           : 0
    faces on cells with determinant < 0.001                : 0

Scaling iteration 9
Moving mesh using displacement scaling : min:0.0750847  max:1
Checking faces in error :
    non-orthogonality > 55  degrees                        : 5303
    faces with face pyramid volume < 1e-13                 : 0
    faces with face-decomposition tet quality < 1e-15      : 0
    faces with concavity > 80  degrees                     : 0
    faces with skewness > 4   (internal) or 20  (boundary) : 0
    faces with interpolation weights (0..1)  < 0.05        : 0
    faces with volume ratio of neighbour cells < 0.01      : 0
    faces with face twist < 0.02                           : 0
    faces on cells with determinant < 0.001                : 0

Scaling iteration 10
Displacement scaling for error reduction set to 0.
Moving mesh using displacement scaling : min:0.0563135  max:1
Checking faces in error :
    non-orthogonality > 55  degrees                        : 5302
    faces with face pyramid volume < 1e-13                 : 0
    faces with face-decomposition tet quality < 1e-15      : 0
    faces with concavity > 80  degrees                     : 0
    faces with skewness > 4   (internal) or 20  (boundary) : 0
    faces with interpolation weights (0..1)  < 0.05        : 0
    faces with volume ratio of neighbour cells < 0.01      : 0
    faces with face twist < 0.02                           : 0
    faces on cells with determinant < 0.001                : 0

Scaling iteration 11
Moving mesh using displacement scaling : min:0  max:1
Checking faces in error :
    non-orthogonality > 55  degrees                        : 5222
    faces with face pyramid volume < 1e-13                 : 0
    faces with face-decomposition tet quality < 1e-15      : 0
    faces with concavity > 80  degrees                     : 0
    faces with skewness > 4   (internal) or 20  (boundary) : 0
    faces with interpolation weights (0..1)  < 0.05        : 0
    faces with volume ratio of neighbour cells < 0.01      : 0
    faces with face twist < 0.02                           : 0
    faces on cells with determinant < 0.001                : 0
Successfully moved mesh

Patch points smoothed in = 21.97 s



Morph iteration 0
-----------------
Calculating patchDisplacement as distance to nearest surface point ...
    non-zone points : attract to nearest of all non-zone surfaces
    zone points     : attract to zone surface only

Wanted displacement : average:0.120795 min:0 max:0.571168
Calculated surface displacement in = 0.01 s


Detecting near surfaces ...
Overriding nearest with intersection of close gaps at 0 out of 34895 points.
Overriding displacement on features :
   implicit features    : true
   explicit features    : true
   multi-patch features : false

Detected 0 baffle edges out of 69223 edges.
Baffle points     : 0 of which attracted to :
    feature point : 0
    feature edge  : 0
    rest          : 0

Initially selected 1808 mesh points out of 34895 for reverse attraction.
Selected 4477 mesh points out of 34895 for reverse attraction.
Stringing feature edges : changed 14 points
Stringing feature edges : changed 0 points
Attraction:
    linear   : max:(0.571168 0 0) avg:(0.0294151 -0.0256803 -0.0239144)
    feature  : max:(0.504818 -0.387503 0.033256) avg:(0.00194877 -0.000854689 0.00104725)
Feature analysis : total master points :34895 of which attracted to :
    feature point   : 34
    feature edge    : 1436
    nearest surface : 0
    rest            : 33425

--> FOAM Warning : Displacement (0 -0.000327799 0) at mesh point 236325 coord (-118.486 1.20487 0) points through the surrounding patch faces
Smoothing displacement ...
Iteration 0
Iteration 10
Iteration 20
Iteration 30
Iteration 40
Iteration 50
Iteration 60
Iteration 70
Iteration 80
Iteration 90
Iteration 100
Iteration 110
Iteration 120
Iteration 130
Iteration 140
Iteration 150
Iteration 160
Iteration 170
Iteration 180
Iteration 190
Iteration 200
Iteration 210
Iteration 220
Iteration 230
Iteration 240
Iteration 250
Iteration 260
Iteration 270
Iteration 280
Iteration 290
Iteration 300
Iteration 310
Iteration 320
Iteration 330
Iteration 340
Iteration 350
Iteration 360
Iteration 370
Iteration 380
Iteration 390
Iteration 400
Iteration 410
Iteration 420
Iteration 430
Iteration 440
Iteration 450
Iteration 460
Iteration 470
Iteration 480
Iteration 490
Displacement smoothed in = 6.19 s


Moving mesh ...

Iteration 0
Moving mesh using displacement scaling : min:1  max:1
Checking faces in error :
    non-orthogonality > 55  degrees                        : 5241
    faces with face pyramid volume < 1e-13                 : 0
    faces with face-decomposition tet quality < 1e-15      : 0
    faces with concavity > 80  degrees                     : 0
    faces with skewness > 4   (internal) or 20  (boundary) : 0
    faces with interpolation weights (0..1)  < 0.05        : 0
    faces with volume ratio of neighbour cells < 0.01      : 0
    faces with face twist < 0.02                           : 0
    faces on cells with determinant < 0.001                : 0

Iteration 1
Moving mesh using displacement scaling : min:0.75  max:1
Checking faces in error :
    non-orthogonality > 55  degrees                        : 5243
    faces with face pyramid volume < 1e-13                 : 0
    faces with face-decomposition tet quality < 1e-15      : 0
    faces with concavity > 80  degrees                     : 0
    faces with skewness > 4   (internal) or 20  (boundary) : 0
    faces with interpolation weights (0..1)  < 0.05        : 0
    faces with volume ratio of neighbour cells < 0.01      : 0
    faces with face twist < 0.02                           : 0
    faces on cells with determinant < 0.001                : 0

Iteration 2
Moving mesh using displacement scaling : min:0.5625  max:1
Checking faces in error :
    non-orthogonality > 55  degrees                        : 5242
    faces with face pyramid volume < 1e-13                 : 0
    faces with face-decomposition tet quality < 1e-15      : 0
    faces with concavity > 80  degrees                     : 0
    faces with skewness > 4   (internal) or 20  (boundary) : 0
    faces with interpolation weights (0..1)  < 0.05        : 0
    faces with volume ratio of neighbour cells < 0.01      : 0
    faces with face twist < 0.02                           : 0
    faces on cells with determinant < 0.001                : 0

Iteration 3
Moving mesh using displacement scaling : min:0.421875  max:1
Checking faces in error :
    non-orthogonality > 55  degrees                        : 5244
    faces with face pyramid volume < 1e-13                 : 0
    faces with face-decomposition tet quality < 1e-15      : 0
    faces with concavity > 80  degrees                     : 0
    faces with skewness > 4   (internal) or 20  (boundary) : 0
    faces with interpolation weights (0..1)  < 0.05        : 0
    faces with volume ratio of neighbour cells < 0.01      : 0
    faces with face twist < 0.02                           : 0
    faces on cells with determinant < 0.001                : 0

Iteration 4
Moving mesh using displacement scaling : min:0.316406  max:1
Checking faces in error :
    non-orthogonality > 55  degrees                        : 5245
    faces with face pyramid volume < 1e-13                 : 0
    faces with face-decomposition tet quality < 1e-15      : 0
[...]
    faces with volume ratio of neighbour cells < 0.01      : 0
    faces with face twist < 0.02                           : 10
    faces on cells with determinant < 0.001                : 0

Iteration 10
Displacement scaling for error reduction set to 0.
Moving mesh using displacement scaling : min:0.0563135  max:1
Checking faces in error :
    non-orthogonality > 55  degrees                        : 5397
    faces with face pyramid volume < 1e-13                 : 0
    faces with face-decomposition tet quality < 1e-15      : 2
    faces with concavity > 80  degrees                     : 0
    faces with skewness > 4   (internal) or 20  (boundary) : 0
    faces with interpolation weights (0..1)  < 0.05        : 0
    faces with volume ratio of neighbour cells < 0.01      : 0
    faces with face twist < 0.02                           : 10
    faces on cells with determinant < 0.001                : 0

Iteration 11
Moving mesh using displacement scaling : min:0  max:1
Checking faces in error :
    non-orthogonality > 55  degrees                        : 5374
    faces with face pyramid volume < 1e-13                 : 0
    faces with face-decomposition tet quality < 1e-15      : 0
    faces with concavity > 80  degrees                     : 0
    faces with skewness > 4   (internal) or 20  (boundary) : 0
    faces with interpolation weights (0..1)  < 0.05        : 0
    faces with volume ratio of neighbour cells < 0.01      : 0
    faces with face twist < 0.02                           : 2
    faces on cells with determinant < 0.001                : 0

Iteration 12
Moving mesh using displacement scaling : min:0  max:1
Checking faces in error :
    non-orthogonality > 55  degrees                        : 5298
    faces with face pyramid volume < 1e-13                 : 0
    faces with face-decomposition tet quality < 1e-15      : 0
    faces with concavity > 80  degrees                     : 0
    faces with skewness > 4   (internal) or 20  (boundary) : 0
    faces with interpolation weights (0..1)  < 0.05        : 0
    faces with volume ratio of neighbour cells < 0.01      : 0
    faces with face twist < 0.02                           : 0
    faces on cells with determinant < 0.001                : 0

Iteration 13
Moving mesh using displacement scaling : min:0  max:1
Checking faces in error :
    non-orthogonality > 55  degrees                        : 5247
    faces with face pyramid volume < 1e-13                 : 0
    faces with face-decomposition tet quality < 1e-15      : 0
    faces with concavity > 80  degrees                     : 0
    faces with skewness > 4   (internal) or 20  (boundary) : 0
    faces with interpolation weights (0..1)  < 0.05        : 0
    faces with volume ratio of neighbour cells < 0.01      : 0
    faces with face twist < 0.02                           : 0
    faces on cells with determinant < 0.001                : 0

Iteration 14
Moving mesh using displacement scaling : min:0  max:1
Checking faces in error :
    non-orthogonality > 55  degrees                        : 5225
    faces with face pyramid volume < 1e-13                 : 0
    faces with face-decomposition tet quality < 1e-15      : 0
    faces with concavity > 80  degrees                     : 0
    faces with skewness > 4   (internal) or 20  (boundary) : 0
    faces with interpolation weights (0..1)  < 0.05        : 0
    faces with volume ratio of neighbour cells < 0.01      : 0
    faces with face twist < 0.02                           : 0
    faces on cells with determinant < 0.001                : 0

Iteration 15
Moving mesh using displacement scaling : min:0  max:1
Checking faces in error :
    non-orthogonality > 55  degrees                        : 5224
    faces with face pyramid volume < 1e-13                 : 0
    faces with face-decomposition tet quality < 1e-15      : 0
    faces with concavity > 80  degrees                     : 0
    faces with skewness > 4   (internal) or 20  (boundary) : 0
    faces with interpolation weights (0..1)  < 0.05        : 0
    faces with volume ratio of neighbour cells < 0.01      : 0
    faces with face twist < 0.02                           : 0
    faces on cells with determinant < 0.001                : 0
Successfully moved mesh
Moved mesh in = 5.91 s



Morph iteration 24
-----------------
Calculating patchDisplacement as distance to nearest surface point ...
    non-zone points : attract to nearest of all non-zone surfaces
    zone points     : attract to zone surface only

Wanted displacement : average:0.0044481 min:0 max:0.299591
Calculated surface displacement in = 0.01 s


Detecting near surfaces ...
Overriding nearest with intersection of close gaps at 0 out of 34895 points.
Overriding displacement on features :
   implicit features    : true
   explicit features    : true
   multi-patch features : false

Detected 0 baffle edges out of 69223 edges.
Baffle points     : 0 of which attracted to :
    feature point : 0
    feature edge  : 0
    rest          : 0

Initially selected 1798 mesh points out of 34895 for reverse attraction.
Selected 4465 mesh points out of 34895 for reverse attraction.
Stringing feature edges : changed 7 points
Stringing feature edges : changed 0 points
Attraction:
    linear   : max:(0.299591 0 1.77636e-15) avg:(0.000570452 -0.000209439 0.00282932)
    feature  : max:(0.312912 0.220425 0.00116382) avg:(0.000326359 -0.000123426 -0.000170122)
Feature analysis : total master points :34895 of which attracted to :
    feature point   : 28
    feature edge    : 1441
    nearest surface : 0
    rest            : 33426

--> FOAM Warning : Displacement (0 -4.26962e-07 0) at mesh point 236325 coord (-118.486 1 0) points through the surrounding patch faces
Smoothing displacement ...
Iteration 0
Iteration 10
Iteration 20
Iteration 30
Iteration 40
Iteration 50
Iteration 60
Iteration 70
Iteration 80
Iteration 90
Iteration 100
Iteration 110
Iteration 120
Iteration 130
Iteration 140
Iteration 150
Iteration 160
Iteration 170
Iteration 180
Iteration 190
Iteration 200
Iteration 210
Iteration 220
Iteration 230
Iteration 240
Iteration 250
Iteration 260
Iteration 270
Iteration 280
Iteration 290
Iteration 300
Iteration 310
Iteration 320
Iteration 330
Iteration 340
Iteration 350
Iteration 360
Iteration 370
Iteration 380
Iteration 390
Iteration 400
Iteration 410
Iteration 420
Iteration 430
Iteration 440
Iteration 450
Iteration 460
Iteration 470
Iteration 480
Iteration 490
Displacement smoothed in = 5.65 s


Moving mesh ...

Iteration 0
Moving mesh using displacement scaling : min:1  max:1
Checking faces in error :
    non-orthogonality > 55  degrees                        : 5454
    faces with face pyramid volume < 1e-13                 : 4
    faces with face-decomposition tet quality < 1e-15      : 12
    faces with concavity > 80  degrees                     : 0
    faces with skewness > 4   (internal) or 20  (boundary) : 0
    faces with interpolation weights (0..1)  < 0.05        : 0
    faces with volume ratio of neighbour cells < 0.01      : 0
    faces with face twist < 0.02                           : 6
    faces on cells with determinant < 0.001                : 0

Iteration 1
Moving mesh using displacement scaling : min:0.75  max:1
Checking faces in error :
    non-orthogonality > 55  degrees                        : 5467
    faces with face pyramid volume < 1e-13                 : 2
    faces with face-decomposition tet quality < 1e-15      : 13
    faces with concavity > 80  degrees                     : 0
    faces with skewness > 4   (internal) or 20  (boundary) : 0
    faces with interpolation weights (0..1)  < 0.05        : 0
    faces with volume ratio of neighbour cells < 0.01      : 0
    faces with face twist < 0.02                           : 6
    faces on cells with determinant < 0.001                : 0

Iteration 2
Moving mesh using displacement scaling : min:0.5625  max:1
Checking faces in error :
    non-orthogonality > 55  degrees                        : 5447
    faces with face pyramid volume < 1e-13                 : 2
    faces with face-decomposition tet quality < 1e-15      : 7
    faces with concavity > 80  degrees                     : 0
    faces with skewness > 4   (internal) or 20  (boundary) : 0
    faces with interpolation weights (0..1)  < 0.05        : 0
    faces with volume ratio of neighbour cells < 0.01      : 0
    faces with face twist < 0.02                           : 8
    faces on cells with determinant < 0.001                : 0

Iteration 3
Moving mesh using displacement scaling : min:0.421875  max:1
Checking faces in error :
    non-orthogonality > 55  degrees                        : 5432
    faces with face pyramid volume < 1e-13                 : 2
    faces with face-decomposition tet quality < 1e-15      : 5
    faces with concavity > 80  degrees                     : 0
    faces with skewness > 4   (internal) or 20  (boundary) : 0
    faces with interpolation weights (0..1)  < 0.05        : 0
    faces with volume ratio of neighbour cells < 0.01      : 0
    faces with face twist < 0.02                           : 8
    faces on cells with determinant < 0.001                : 0

Iteration 4
Moving mesh using displacement scaling : min:0.316406  max:1
Checking faces in error :
    non-orthogonality > 55  degrees                        : 5417
    faces with face pyramid volume < 1e-13                 : 0
    faces with face-decomposition tet quality < 1e-15      : 6
    faces with concavity > 80  degrees                     : 0
    faces with skewness > 4   (internal) or 20  (boundary) : 0
    faces with interpolation weights (0..1)  < 0.05        : 0
    faces with volume ratio of neighbour cells < 0.01      : 0
    faces with face twist < 0.02                           : 8
    faces on cells with determinant < 0.001                : 0

Iteration 5
Moving mesh using displacement scaling : min:0.237305  max:1
Checking faces in error :
    non-orthogonality > 55  degrees                        : 5414
    faces with face pyramid volume < 1e-13                 : 0
    faces with face-decomposition tet quality < 1e-15      : 6
    faces with concavity > 80  degrees                     : 0
    faces with skewness > 4   (internal) or 20  (boundary) : 0
    faces with interpolation weights (0..1)  < 0.05        : 0
    faces with volume ratio of neighbour cells < 0.01      : 0
    faces with face twist < 0.02                           : 8
    faces on cells with determinant < 0.001                : 0

Iteration 6
Moving mesh using displacement scaling : min:0.177979  max:1
Checking faces in error :
    non-orthogonality > 55  degrees                        : 5386
    faces with face pyramid volume < 1e-13                 : 0
    faces with face-decomposition tet quality < 1e-15      : 4
    faces with concavity > 80  degrees                     : 0
    faces with skewness > 4   (internal) or 20  (boundary) : 0
    faces with interpolation weights (0..1)  < 0.05        : 0
    faces with volume ratio of neighbour cells < 0.01      : 0
    faces with face twist < 0.02                           : 10
    faces on cells with determinant < 0.001                : 0

Iteration 7
Moving mesh using displacement scaling : min:0.133484  max:1
Checking faces in error :
    non-orthogonality > 55  degrees                        : 5382
    faces with face pyramid volume < 1e-13                 : 0
    faces with face-decomposition tet quality < 1e-15      : 2
    faces with concavity > 80  degrees                     : 0
    faces with skewness > 4   (internal) or 20  (boundary) : 0
    faces with interpolation weights (0..1)  < 0.05        : 0
    faces with volume ratio of neighbour cells < 0.01      : 0
    faces with face twist < 0.02                           : 12
    faces on cells with determinant < 0.001                : 0

Iteration 8
Moving mesh using displacement scaling : min:0.100113  max:1
Checking faces in error :
    non-orthogonality > 55  degrees                        : 5383
    faces with face pyramid volume < 1e-13                 : 0
    faces with face-decomposition tet quality < 1e-15      : 2
    faces with concavity > 80  degrees                     : 0
    faces with skewness > 4   (internal) or 20  (boundary) : 0
    faces with interpolation weights (0..1)  < 0.05        : 0
    faces with volume ratio of neighbour cells < 0.01      : 0
    faces with face twist < 0.02                           : 12
    faces on cells with determinant < 0.001                : 0

Iteration 9
Moving mesh using displacement scaling : min:0.0750847  max:1
Checking faces in error :
    non-orthogonality > 55  degrees                        : 5371
    faces with face pyramid volume < 1e-13                 : 0
    faces with face-decomposition tet quality < 1e-15      : 2
    faces with concavity > 80  degrees                     : 0
    faces with skewness > 4   (internal) or 20  (boundary) : 0
    faces with interpolation weights (0..1)  < 0.05        : 0
    faces with volume ratio of neighbour cells < 0.01      : 0
    faces with face twist < 0.02                           : 12
    faces on cells with determinant < 0.001                : 0

Iteration 10
Displacement scaling for error reduction set to 0.
Moving mesh using displacement scaling : min:0.0563135  max:1
Checking faces in error :
    non-orthogonality > 55  degrees                        : 5355
    faces with face pyramid volume < 1e-13                 : 0
    faces with face-decomposition tet quality < 1e-15      : 2
    faces with concavity > 80  degrees                     : 0
    faces with skewness > 4   (internal) or 20  (boundary) : 0
    faces with interpolation weights (0..1)  < 0.05        : 0
    faces with volume ratio of neighbour cells < 0.01      : 0
    faces with face twist < 0.02                           : 12
    faces on cells with determinant < 0.001                : 0

Iteration 11
Moving mesh using displacement scaling : min:0  max:1
Checking faces in error :
    non-orthogonality > 55  degrees                        : 5349
    faces with face pyramid volume < 1e-13                 : 0
    faces with face-decomposition tet quality < 1e-15      : 0
    faces with concavity > 80  degrees                     : 0
    faces with skewness > 4   (internal) or 20  (boundary) : 0
    faces with interpolation weights (0..1)  < 0.05        : 0
    faces with volume ratio of neighbour cells < 0.01      : 0
    faces with face twist < 0.02                           : 0
    faces on cells with determinant < 0.001                : 0

Iteration 12
Moving mesh using displacement scaling : min:0  max:1
Checking faces in error :
    non-orthogonality > 55  degrees                        : 5279
    faces with face pyramid volume < 1e-13                 : 0
    faces with face-decomposition tet quality < 1e-15      : 0
    faces with concavity > 80  degrees                     : 0
    faces with skewness > 4   (internal) or 20  (boundary) : 0
    faces with interpolation weights (0..1)  < 0.05        : 0
    faces with volume ratio of neighbour cells < 0.01      : 0
    faces with face twist < 0.02                           : 0
    faces on cells with determinant < 0.001                : 0

Iteration 13
Moving mesh using displacement scaling : min:0  max:1
Checking faces in error :
    non-orthogonality > 55  degrees                        : 5254
    faces with face pyramid volume < 1e-13                 : 0
    faces with face-decomposition tet quality < 1e-15      : 0
    faces with concavity > 80  degrees                     : 0
    faces with skewness > 4   (internal) or 20  (boundary) : 0
    faces with interpolation weights (0..1)  < 0.05        : 0
    faces with volume ratio of neighbour cells < 0.01      : 0
    faces with face twist < 0.02                           : 0
    faces on cells with determinant < 0.001                : 0

Iteration 14
Moving mesh using displacement scaling : min:0  max:1
Checking faces in error :
    non-orthogonality > 55  degrees                        : 5224
    faces with face pyramid volume < 1e-13                 : 0
    faces with face-decomposition tet quality < 1e-15      : 0
    faces with concavity > 80  degrees                     : 0
    faces with skewness > 4   (internal) or 20  (boundary) : 0
    faces with interpolation weights (0..1)  < 0.05        : 0
    faces with volume ratio of neighbour cells < 0.01      : 0
    faces with face twist < 0.02                           : 0
    faces on cells with determinant < 0.001                : 0
Successfully moved mesh
Moved mesh in = 5.51 s


Repatching faces according to nearest surface ...
Repatched 0 faces in = 0.05 s


Edge intersection testing:
    Number of edges             : 1528699
    Number of edges to retest   : 220391
    Number of intersected edges : 34334
Merging 61 sets of faces.

Edge intersection testing:
    Number of edges             : 1528632
    Number of edges to retest   : 330
    Number of intersected edges : 34267

Undo iteration 0
----------------
Checking faces in error :
    non-orthogonality > 55  degrees                        : 5224
    faces with face pyramid volume < 1e-13                 : 0
    faces with face-decomposition tet quality < 1e-15      : 0
    faces with concavity > 80  degrees                     : 0
    faces with skewness > 4   (internal) or 20  (boundary) : 0
    faces with interpolation weights (0..1)  < 0.05        : 0
    faces with volume ratio of neighbour cells < 0.01      : 0
    faces with face twist < 0.02                           : 0
    faces on cells with determinant < 0.001                : 0
Masters that need to be restored:0

Merging all points on surface that
- are used by only two boundary faces and
- make an angle with a cosine of more than 0.866025.

Removing 53 straight edge points ...

Edge intersection testing:
    Number of edges             : 1528632
    Number of edges to retest   : 299
    Number of intersected edges : 34267

Undo iteration 0
----------------
Checking faces in error :
    non-orthogonality > 55  degrees                        : 5224
    faces with face pyramid volume < 1e-13                 : 0
    faces with face-decomposition tet quality < 1e-15      : 3
    faces with concavity > 80  degrees                     : 0
    faces with skewness > 4   (internal) or 20  (boundary) : 0
    faces with interpolation weights (0..1)  < 0.05        : 0
    faces with volume ratio of neighbour cells < 0.01      : 0
    faces with face twist < 0.02                           : 0
    faces on cells with determinant < 0.001                : 0
Detected 0 error faces on boundaries that have been merged. These will be restored to their original faces.

Detected 5227 error faces in mesh. Restoring neighbours of faces in error.

Edge intersection testing:
    Number of edges             : 1528632
    Number of edges to retest   : 46904
    Number of intersected edges : 34267
Snapped mesh : cells:489622  faces:1528632  points:550204
Cells per refinement level:
    0	207365
    1	93699
    2	21104
    3	28710
    4	33312
    5	33784
    6	35840
    7	35808
Writing mesh to time constant
Wrote mesh in = 0.05 s.
Mesh snapped in = 311.44 s.
Checking final mesh ...
Checking faces in error :
    non-orthogonality > 55  degrees                        : 5224
    faces with face pyramid volume < 1e-13                 : 0
    faces with face-decomposition tet quality < 1e-15      : 0
    faces with concavity > 80  degrees                     : 0
    faces with skewness > 4   (internal) or 20  (boundary) : 0
    faces with interpolation weights (0..1)  < 0.05        : 0
    faces with volume ratio of neighbour cells < 0.01      : 0
    faces with face twist < 0.02                           : 0
    faces on cells with determinant < 0.001                : 0
Finished meshing with 5224 illegal faces (concave, zero area or negative cell pyramid volume)
Finished meshing in = 343.76 s.
End

