/*---------------------------------------------------------------------------*\
| =========                 |                                                 |
| \\      /  F ield         | OpenFOAM: The Open Source CFD Toolbox           |
|  \\    /   O peration     | Version:  2406                                  |
|   \\  /    A nd           | Website:  www.openfoam.com                      |
|    \\/     M anipulation  |                                                 |
\*---------------------------------------------------------------------------*/
Build  : _630d60de3b-20240620 OPENFOAM=2406 version=v2406
Arch   : "LSB;label=32;scalar=64"
Exec   : renumberMesh -overwrite
Date   : Mar 26 2026
Time   : 14:33:39
Host   : RISEPC-MhOrpSuy
PID    : 181652
I/O    : uncollated
Case   : /home/chenhu/OpenFOAM/chenhu-v2406/run/Bunkering/Bunkering_gitHub/Bunkering_02
nProcs : 1
trapFpe: Floating point exception trapping enabled (FOAM_SIGFPE).
fileModificationChecking : Monitoring run-time modified files using timeStampMaster (fileModificationSkew 5, maxFileModificationPolls 20)
allowSystemOperations : Allowing user-supplied system call operations

// * * * * * * * * * * * * * * * * * * * * * * * * * * * * * * * * * * * * * //
Create time

Create mesh for time = 0

Mesh region0 size: 156941
Before renumbering
    band           : 149382
    profile        : 4.2086e+09

Using renumber-method: CuthillMcKee [default]

Reading fields
    volScalarField: H2 N2 O2 T Ydefault alphat epsilon k nut p p_waveTransmissive
    volVectorField: UUsing dynamicCode for patch nozzle on field U at line 73 in "/home/chenhu/OpenFOAM/chenhu-v2406/run/Bunkering/Bunkering_gitHub/Bunkering_02/0/U/boundaryField/nozzle"
Could not load "/home/chenhu/OpenFOAM/chenhu-v2406/run/Bunkering/Bunkering_gitHub/Bunkering_02/dynamicCode/platforms/linux64GccDPInt32Opt/lib/librampInletVelocity_c57a7e89f961b16d894500db83b7a28d85d4e51f.so"
/home/chenhu/OpenFOAM/chenhu-v2406/run/Bunkering/Bunkering_gitHub/Bunkering_02/dynamicCode/platforms/linux64GccDPInt32Opt/lib/librampInletVelocity_c57a7e89f961b16d894500db83b7a28d85d4e51f.so: cannot open shared object file: No such file or directory
Creating new library in "dynamicCode/rampInletVelocity/platforms/linux64GccDPInt32Opt/lib/librampInletVelocity_c57a7e89f961b16d894500db83b7a28d85d4e51f.so"
Invoking wmake libso /home/chenhu/OpenFOAM/chenhu-v2406/run/Bunkering/Bunkering_gitHub/Bunkering_02/dynamicCode/rampInletVelocity
wmake libso /home/chenhu/OpenFOAM/chenhu-v2406/run/Bunkering/Bunkering_gitHub/Bunkering_02/dynamicCode/rampInletVelocity
    ln: ./lnInclude
    dep: fixedValueFvPatchFieldTemplate.C
    Ctoo: fixedValueFvPatchFieldTemplate.C
    link: /home/chenhu/OpenFOAM/chenhu-v2406/run/Bunkering/Bunkering_gitHub/Bunkering_02/dynamicCode/rampInletVelocity/../platforms/linux64GccDPInt32Opt/lib/librampInletVelocity_c57a7e89f961b16d894500db83b7a28d85d4e51f.so


After renumbering
    band           : 3042
    profile        : 2.67868e+08

Writing mesh to "constant"
Reading hexRef8 data : cellLevel
Reading hexRef8 data : pointLevel
Reading hexRef8 data : level0Edge

Timings:
    read mesh   : 0.0269439
    read fields : 4.18261
    decompose   : 0
    cell-cells  : 0
    renumber    : 0.0390446
    write       : 0.0166926
TotalTime = 4.34307 s

ExecutionTime = 0.16 s  ClockTime = 4 s

End

