srun: Step created for StepId=18990426.1
/*---------------------------------------------------------------------------*\
| =========                 |                                                 |
| \\      /  F ield         | OpenFOAM: The Open Source CFD Toolbox           |
|  \\    /   O peration     | Version:  2406                                  |
|   \\  /    A nd           | Website:  www.openfoam.com                      |
|    \\/     M anipulation  |                                                 |
\*---------------------------------------------------------------------------*/
Build  : _630d60de3b-20240620 OPENFOAM=2406 version=v2406
Arch   : "LSB;label=32;scalar=64"
Exec   : /pdc/software/24.11/other/openfoam/v2406/OpenFOAM-v2406/platforms/linux64CrayDPInt32Opt/bin/reactingFoam -case /cfs/klemming/home/c/chhua/naiss2024-5-347/OpenFOAM/chhua-v2406/run/Bunkering/Bunkering_03 -parallel
Date   : Mar 27 2026
Time   : 10:27:40
Host   : nid001243
PID    : 2330328
I/O    : uncollated
Case   : /cfs/klemming/home/c/chhua/naiss2024-5-347/OpenFOAM/chhua-v2406/run/Bunkering/Bunkering_03
nProcs : 128
Hosts  :
(
    (nid001243 128)
)
Pstream initialized with:
    floatTransfer      : false
    maxCommsSize       : 0
    nProcsSimpleSum    : 0
    nonBlockingExchange: 0 (tuning: 0)
    exchange algorithm : 0
    commsType          : nonBlocking
    polling iterations : 0
trapFpe: Floating point exception trapping enabled (FOAM_SIGFPE).
fileModificationChecking : Monitoring run-time modified files using timeStampMaster (fileModificationSkew 5, maxFileModificationPolls 20)
allowSystemOperations : Allowing user-supplied system call operations

// * * * * * * * * * * * * * * * * * * * * * * * * * * * * * * * * * * * * * //
Create time

Create mesh for time = 0


PIMPLE: max iterations = 3
    field p	: relTol 0, tolerance 0.0001
    field U	: relTol 0, tolerance 1e-05
    field h	: relTol 0, tolerance 1e-06
    field "(H2|O2|H2O|N2)"	: relTol 0, tolerance 1e-06

Reading thermophysical properties

Selecting thermodynamics package 
{
    type            hePsiThermo;
    mixture         singleStepReactingMixture;
    transport       sutherland;
    thermo          janaf;
    energy          sensibleEnthalpy;
    equationOfState perfectGas;
    specie          specie;
}

Selecting chemistryReader foamChemistryReader
    elements not defined in "/cfs/klemming/home/c/chhua/naiss2024-5-347/OpenFOAM/chhua-v2406/run/Bunkering/Bunkering_03/constant/reactions"
Fuel heat of combustion :1.1997e+08
stoichiometric air-fuel ratio :7.93668
stoichiometric oxygen-fuel ratio :7.93668
Maximum products mass concentrations:
    H2O: 1
Reading field U

Reading/calculating face flux field phi

Creating turbulence model.

Selecting turbulence model type RAS
Selecting RAS turbulence model kEpsilon
RAS
{
    RASModel        kEpsilon;
    turbulence      on;
    printCoeffs     on;
    Cmu             0.09;
    C1              1.44;
    C2              1.92;
    C3              0;
    sigmak          1;
    sigmaEps        1.3;
}

Creating reaction model

Selecting combustion model none
Creating field dpdt

Creating field kinetic energy K

No MRF models present

No finite volume options present
Courant Number mean: 0 max: 0

Starting time loop

--> FOAM Warning : 


    From static Foam::autoPtr<Foam::functionObject> Foam::functionObject::New(const Foam::word&, const Foam::Time&, const Foam::dictionary&)
    in file db/functionObjects/functionObject/functionObject.C at line 129.
--> loading function object 'CourantNo'

Courant Number mean: 0 max: 0
deltaT = 0.00120482
Time = 0.00120482

diagonal:  Solving for rho, Initial residual = 0, Final residual = 0, No Iterations 0
PIMPLE: iteration 1
DILUPBiCGStab:  Solving for Ux:  solution singularity
DILUPBiCGStab:  Solving for Uy:  solution singularity
DILUPBiCGStab:  Solving for Uz, Initial residual = 1, Final residual = 2.55987e-11, No Iterations 2
DILUPBiCGStab:  Solving for O2, Initial residual = 0.99064, Final residual = 2.65857e-11, No Iterations 2
DILUPBiCGStab:  Solving for H2, Initial residual = 1, Final residual = 2.68381e-11, No Iterations 2
DILUPBiCGStab:  Solving for H2O:  solution singularity
DILUPBiCGStab:  Solving for h, Initial residual = 0.999937, Final residual = 4.57569e-11, No Iterations 2
min/max(T) = 299.998, 300.002
DICPCG:  Solving for p, Initial residual = 0.999995, Final residual = 9.17485e-09, No Iterations 78
DICPCG:  Solving for p, Initial residual = 2.3073e-06, Final residual = 8.34624e-09, No Iterations 19
DICPCG:  Solving for p, Initial residual = 1.36473e-07, Final residual = 9.74884e-09, No Iterations 11
diagonal:  Solving for rho, Initial residual = 0, Final residual = 0, No Iterations 0
time step continuity errors : sum local = 1.29221e-11, global = 1.27494e-11, cumulative = 1.27494e-11
DICPCG:  Solving for p, Initial residual = 1.69805e-07, Final residual = 8.08689e-09, No Iterations 28
DICPCG:  Solving for p, Initial residual = 6.32501e-08, Final residual = 8.78552e-09, No Iterations 3
DICPCG:  Solving for p, Initial residual = 1.09922e-08, Final residual = 5.79281e-09, No Iterations 1
diagonal:  Solving for rho, Initial residual = 0, Final residual = 0, No Iterations 0
time step continuity errors : sum local = 1.28212e-11, global = 1.26404e-11, cumulative = 2.53898e-11
PIMPLE: iteration 2
DILUPBiCGStab:  Solving for Ux, Initial residual = 2.17062e-06, Final residual = 4.35232e-11, No Iterations 1
DILUPBiCGStab:  Solving for Uy, Initial residual = 2.09353e-06, Final residual = 9.91274e-11, No Iterations 1
DILUPBiCGStab:  Solving for Uz, Initial residual = 1.4666e-07, Final residual = 1.7048e-11, No Iterations 1
DILUPBiCGStab:  Solving for O2, Initial residual = 3.68298e-07, Final residual = 5.20959e-11, No Iterations 1
DILUPBiCGStab:  Solving for H2, Initial residual = 6.26358e-07, Final residual = 8.86006e-11, No Iterations 1
DILUPBiCGStab:  Solving for H2O:  solution singularity
DILUPBiCGStab:  Solving for h, Initial residual = 2.79821e-06, Final residual = 1.63753e-10, No Iterations 1
min/max(T) = 300, 300.356
DICPCG:  Solving for p, Initial residual = 3.33378e-06, Final residual = 9.51652e-09, No Iterations 41
DICPCG:  Solving for p, Initial residual = 1.23376e-06, Final residual = 9.55948e-09, No Iterations 17
DICPCG:  Solving for p, Initial residual = 7.00874e-08, Final residual = 8.85754e-09, No Iterations 6
diagonal:  Solving for rho, Initial residual = 0, Final residual = 0, No Iterations 0
time step continuity errors : sum local = 1.33578e-11, global = 1.28759e-11, cumulative = 3.82657e-11
DICPCG:  Solving for p, Initial residual = 5.60179e-07, Final residual = 9.843e-09, No Iterations 30
DICPCG:  Solving for p, Initial residual = 1.28356e-07, Final residual = 9.4351e-09, No Iterations 4
DICPCG:  Solving for p, Initial residual = 1.45797e-08, Final residual = 6.7118e-09, No Iterations 1
diagonal:  Solving for rho, Initial residual = 0, Final residual = 0, No Iterations 0
time step continuity errors : sum local = 1.31483e-11, global = 1.25704e-11, cumulative = 5.08361e-11
PIMPLE: iteration 3
DILUPBiCGStab:  Solving for Ux, Initial residual = 1.69888e-06, Final residual = 3.79441e-10, No Iterations 1
DILUPBiCGStab:  Solving for Uy, Initial residual = 1.61473e-06, Final residual = 5.81011e-10, No Iterations 1
DILUPBiCGStab:  Solving for Uz, Initial residual = 6.67723e-08, Final residual = 5.94593e-11, No Iterations 1
DILUPBiCGStab:  Solving for O2, Initial residual = 4.21609e-08, Final residual = 2.2853e-11, No Iterations 1
DILUPBiCGStab:  Solving for H2, Initial residual = 4.21041e-08, Final residual = 2.39717e-11, No Iterations 1
DILUPBiCGStab:  Solving for H2O:  solution singularity
DILUPBiCGStab:  Solving for h, Initial residual = 3.64194e-07, Final residual = 5.00828e-11, No Iterations 1
min/max(T) = 300, 300.458
DICPCG:  Solving for p, Initial residual = 1.86868e-06, Final residual = 8.29737e-09, No Iterations 33
DICPCG:  Solving for p, Initial residual = 3.05541e-07, Final residual = 7.79126e-09, No Iterations 9
DICPCG:  Solving for p, Initial residual = 2.08457e-08, Final residual = 6.80269e-09, No Iterations 1
diagonal:  Solving for rho, Initial residual = 0, Final residual = 0, No Iterations 0
time step continuity errors : sum local = 1.3291e-11, global = 1.27737e-11, cumulative = 6.36098e-11
DICPCG:  Solving for p, Initial residual = 3.2611e-07, Final residual = 9.98469e-09, No Iterations 24
DICPCG:  Solving for p, Initial residual = 5.92178e-08, Final residual = 8.84731e-09, No Iterations 6
DICPCG:  Solving for p, Initial residual = 1.18371e-08, Final residual = 6.59552e-09, No Iterations 1
diagonal:  Solving for rho, Initial residual = 0, Final residual = 0, No Iterations 0
time step continuity errors : sum local = 1.32307e-11, global = 1.24455e-11, cumulative = 7.60553e-11
DILUPBiCGStab:  Solving for epsilon, Initial residual = 0.88595, Final residual = 6.12726e-09, No Iterations 4
bounding epsilon, min: -0.0406379 max: 241495 average: 21.41
DILUPBiCGStab:  Solving for k, Initial residual = 1, Final residual = 8.40971e-10, No Iterations 3
bounding k, min: -0.00942182 max: 34.8381 average: 0.00485178
PIMPLE: not converged within 3 iterations
ExecutionTime = 0.72 s  ClockTime = 1 s

Courant Number mean: 4.61647e-09 max: 21.184
deltaT = 2.84385e-05
Time = 0.00123326

diagonal:  Solving for rho, Initial residual = 0, Final residual = 0, No Iterations 0
PIMPLE: iteration 1
DILUPBiCGStab:  Solving for Ux, Initial residual = 0.0122204, Final residual = 1.5815e-09, No Iterations 4
DILUPBiCGStab:  Solving for Uy, Initial residual = 0.0119597, Final residual = 1.7436e-09, No Iterations 4
DILUPBiCGStab:  Solving for Uz, Initial residual = 9.84892e-05, Final residual = 4.53647e-09, No Iterations 2
DILUPBiCGStab:  Solving for O2, Initial residual = 0.000849084, Final residual = 4.537e-09, No Iterations 3
DILUPBiCGStab:  Solving for H2, Initial residual = 0.000629937, Final residual = 4.16855e-09, No Iterations 3
DILUPBiCGStab:  Solving for H2O:  solution singularity
DILUPBiCGStab:  Solving for h, Initial residual = 0.000503446, Final residual = 2.86639e-09, No Iterations 3
min/max(T) = 300, 300.463
DICPCG:  Solving for p, Initial residual = 3.50476e-07, Final residual = 7.78343e-09, No Iterations 2
DICPCG:  Solving for p, Initial residual = 7.75502e-10, Final residual = 7.75502e-10, No Iterations 0
DICPCG:  Solving for p, Initial residual = 7.75502e-10, Final residual = 7.75502e-10, No Iterations 0
diagonal:  Solving for rho, Initial residual = 0, Final residual = 0, No Iterations 0
time step continuity errors : sum local = 8.31762e-13, global = 6.6689e-14, cumulative = 7.6122e-11
DICPCG:  Solving for p, Initial residual = 2.31632e-09, Final residual = 2.31632e-09, No Iterations 0
DICPCG:  Solving for p, Initial residual = 2.31632e-09, Final residual = 2.31632e-09, No Iterations 0
DICPCG:  Solving for p, Initial residual = 2.31632e-09, Final residual = 2.31632e-09, No Iterations 0
diagonal:  Solving for rho, Initial residual = 0, Final residual = 0, No Iterations 0
time step continuity errors : sum local = 2.48416e-12, global = 5.86173e-14, cumulative = 7.61806e-11
PIMPLE: iteration 2
DILUPBiCGStab:  Solving for Ux, Initial residual = 0.00534, Final residual = 9.69557e-09, No Iterations 3
DILUPBiCGStab:  Solving for Uy, Initial residual = 0.00490051, Final residual = 9.51779e-09, No Iterations 3
DILUPBiCGStab:  Solving for Uz, Initial residual = 5.48936e-05, Final residual = 4.0029e-09, No Iterations 2
DILUPBiCGStab:  Solving for O2, Initial residual = 0.000207577, Final residual = 1.58938e-09, No Iterations 3
DILUPBiCGStab:  Solving for H2, Initial residual = 0.00019538, Final residual = 2.46022e-09, No Iterations 3
DILUPBiCGStab:  Solving for H2O:  solution singularity
DILUPBiCGStab:  Solving for h, Initial residual = 0.000163466, Final residual = 2.36217e-09, No Iterations 3
min/max(T) = 300, 307.86
DICPCG:  Solving for p, Initial residual = 2.61371e-08, Final residual = 3.62036e-09, No Iterations 1
DICPCG:  Solving for p, Initial residual = 1.84317e-09, Final residual = 1.84317e-09, No Iterations 0
DICPCG:  Solving for p, Initial residual = 1.84317e-09, Final residual = 1.84317e-09, No Iterations 0
diagonal:  Solving for rho, Initial residual = 0, Final residual = 0, No Iterations 0
time step continuity errors : sum local = 3.93704e-12, global = 3.25835e-12, cumulative = 7.9439e-11
DICPCG:  Solving for p, Initial residual = 2.73315e-09, Final residual = 2.73315e-09, No Iterations 0
DICPCG:  Solving for p, Initial residual = 2.73315e-09, Final residual = 2.73315e-09, No Iterations 0
DICPCG:  Solving for p, Initial residual = 2.73315e-09, Final residual = 2.73315e-09, No Iterations 0
diagonal:  Solving for rho, Initial residual = 0, Final residual = 0, No Iterations 0
time step continuity errors : sum local = 5.838e-12, global = 3.23112e-12, cumulative = 8.26701e-11
PIMPLE: iteration 3
DILUPBiCGStab:  Solving for Ux, Initial residual = 0.00288331, Final residual = 6.78214e-09, No Iterations 3
DILUPBiCGStab:  Solving for Uy, Initial residual = 0.00217146, Final residual = 5.29707e-09, No Iterations 3
DILUPBiCGStab:  Solving for Uz, Initial residual = 2.67015e-05, Final residual = 4.96234e-09, No Iterations 2
DILUPBiCGStab:  Solving for O2, Initial residual = 0.000112005, Final residual = 8.3022e-09, No Iterations 2
DILUPBiCGStab:  Solving for H2, Initial residual = 7.82437e-05, Final residual = 6.70029e-09, No Iterations 2
DILUPBiCGStab:  Solving for H2O:  solution singularity
DILUPBiCGStab:  Solving for h, Initial residual = 4.57516e-05, Final residual = 4.05628e-09, No Iterations 2
min/max(T) = 300, 311.187
DICPCG:  Solving for p, Initial residual = 1.46011e-08, Final residual = 3.21402e-09, No Iterations 1
DICPCG:  Solving for p, Initial residual = 2.08999e-09, Final residual = 2.08999e-09, No Iterations 0
DICPCG:  Solving for p, Initial residual = 2.08999e-09, Final residual = 2.08999e-09, No Iterations 0
diagonal:  Solving for rho, Initial residual = 0, Final residual = 0, No Iterations 0
time step continuity errors : sum local = 6.94406e-12, global = 5.11563e-12, cumulative = 8.77857e-11
DICPCG:  Solving for p, Initial residual = 2.87091e-09, Final residual = 2.87091e-09, No Iterations 0
DICPCG:  Solving for p, Initial residual = 2.87091e-09, Final residual = 2.87091e-09, No Iterations 0
DICPCG:  Solving for p, Initial residual = 2.87091e-09, Final residual = 2.87091e-09, No Iterations 0
diagonal:  Solving for rho, Initial residual = 0, Final residual = 0, No Iterations 0
time step continuity errors : sum local = 9.53868e-12, global = 5.10331e-12, cumulative = 9.2889e-11
DILUPBiCGStab:  Solving for epsilon, Initial residual = 0.00127926, Final residual = 2.15733e-17, No Iterations 1
DILUPBiCGStab:  Solving for k, Initial residual = 0.00419578, Final residual = 6.21421e-09, No Iterations 3
PIMPLE: not converged within 3 iterations
ExecutionTime = 0.78 s  ClockTime = 1 s

Courant Number mean: 1.58903e-10 max: 0.735866
deltaT = 1.93243e-05
Time = 0.00125258

diagonal:  Solving for rho, Initial residual = 0, Final residual = 0, No Iterations 0
PIMPLE: iteration 1
DILUPBiCGStab:  Solving for Ux, Initial residual = 2.94623e-06, Final residual = 3.09854e-10, No Iterations 1
DILUPBiCGStab:  Solving for Uy, Initial residual = 3.05049e-06, Final residual = 6.22267e-11, No Iterations 1
DILUPBiCGStab:  Solving for Uz, Initial residual = 5.70421e-08, Final residual = 8.3703e-12, No Iterations 1
DILUPBiCGStab:  Solving for O2, Initial residual = 1.72118e-09, Final residual = 1.32773e-13, No Iterations 1
DILUPBiCGStab:  Solving for H2, Initial residual = 1.16759e-09, Final residual = 1.10283e-13, No Iterations 1
DILUPBiCGStab:  Solving for H2O:  solution singularity
DILUPBiCGStab:  Solving for h, Initial residual = 1.41286e-07, Final residual = 1.06998e-11, No Iterations 1
min/max(T) = 283.955, 329.087
DICPCG:  Solving for p, Initial residual = 2.6018e-08, Final residual = 3.29485e-09, No Iterations 1
DICPCG:  Solving for p, Initial residual = 3.65876e-09, Final residual = 3.65876e-09, No Iterations 0
DICPCG:  Solving for p, Initial residual = 3.65876e-09, Final residual = 3.65876e-09, No Iterations 0
diagonal:  Solving for rho, Initial residual = 0, Final residual = 0, No Iterations 0
time step continuity errors : sum local = 1.21542e-11, global = 1.93559e-12, cumulative = 9.48246e-11
DICPCG:  Solving for p, Initial residual = 4.438e-09, Final residual = 4.438e-09, No Iterations 0
DICPCG:  Solving for p, Initial residual = 4.438e-09, Final residual = 4.438e-09, No Iterations 0
DICPCG:  Solving for p, Initial residual = 4.438e-09, Final residual = 4.438e-09, No Iterations 0
diagonal:  Solving for rho, Initial residual = 0, Final residual = 0, No Iterations 0
time step continuity errors : sum local = 1.47428e-11, global = 2.1384e-12, cumulative = 9.6963e-11
PIMPLE: iteration 2
DILUPBiCGStab:  Solving for Ux, Initial residual = 6.32227e-08, Final residual = 1.65491e-11, No Iterations 1
DILUPBiCGStab:  Solving for Uy, Initial residual = 1.90197e-07, Final residual = 1.3049e-11, No Iterations 1
DILUPBiCGStab:  Solving for Uz, Initial residual = 4.33616e-08, Final residual = 7.63783e-12, No Iterations 1
DILUPBiCGStab:  Solving for O2, Initial residual = 1.35256e-08, Final residual = 7.95853e-13, No Iterations 1
DILUPBiCGStab:  Solving for H2, Initial residual = 2.97334e-09, Final residual = 2.39171e-13, No Iterations 1
DILUPBiCGStab:  Solving for H2O:  solution singularity
DILUPBiCGStab:  Solving for h, Initial residual = 4.02383e-08, Final residual = 3.47273e-12, No Iterations 1
min/max(T) = 281.207, 331.011
DICPCG:  Solving for p, Initial residual = 7.17086e-09, Final residual = 7.17086e-09, No Iterations 0
DICPCG:  Solving for p, Initial residual = 7.17086e-09, Final residual = 7.17086e-09, No Iterations 0
DICPCG:  Solving for p, Initial residual = 7.17086e-09, Final residual = 7.17086e-09, No Iterations 0
diagonal:  Solving for rho, Initial residual = 0, Final residual = 0, No Iterations 0
time step continuity errors : sum local = 2.38211e-11, global = 2.34159e-12, cumulative = 9.93046e-11
DICPCG:  Solving for p, Initial residual = 7.17087e-09, Final residual = 7.17087e-09, No Iterations 0
DICPCG:  Solving for p, Initial residual = 7.17087e-09, Final residual = 7.17087e-09, No Iterations 0
DICPCG:  Solving for p, Initial residual = 7.17087e-09, Final residual = 7.17087e-09, No Iterations 0
diagonal:  Solving for rho, Initial residual = 0, Final residual = 0, No Iterations 0
time step continuity errors : sum local = 2.38211e-11, global = 2.34159e-12, cumulative = 1.01646e-10
DILUPBiCGStab:  Solving for epsilon, Initial residual = 1.72705e-05, Final residual = 1.1921e-14, No Iterations 1
DILUPBiCGStab:  Solving for k, Initial residual = 6.34871e-08, Final residual = 1.84979e-11, No Iterations 1
bounding k, min: -4.87629 max: 264.875 average: 0.0195442
PIMPLE: converged in 2 iterations
ExecutionTime = 0.82 s  ClockTime = 1 s

Courant Number mean: 1.91617e-10 max: 1.10934
deltaT = 8.71019e-06
Time = 0.00126129

diagonal:  Solving for rho, Initial residual = 0, Final residual = 0, No Iterations 0
PIMPLE: iteration 1
DILUPBiCGStab:  Solving for Ux, Initial residual = 8.30638e-08, Final residual = 4.48591e-12, No Iterations 1
DILUPBiCGStab:  Solving for Uy, Initial residual = 2.69513e-07, Final residual = 1.69547e-11, No Iterations 1
DILUPBiCGStab:  Solving for Uz, Initial residual = 2.93682e-07, Final residual = 3.77941e-11, No Iterations 1
DILUPBiCGStab:  Solving for O2, Initial residual = 2.84779e-09, Final residual = 1.54537e-13, No Iterations 1
DILUPBiCGStab:  Solving for H2, Initial residual = 1.48681e-09, Final residual = 5.28091e-14, No Iterations 1
DILUPBiCGStab:  Solving for H2O:  solution singularity
DILUPBiCGStab:  Solving for h, Initial residual = 1.4429e-08, Final residual = 1.64291e-12, No Iterations 1
min/max(T) = 272.958, 330.664
DICPCG:  Solving for p, Initial residual = 7.11665e-09, Final residual = 7.11665e-09, No Iterations 0
DICPCG:  Solving for p, Initial residual = 7.11665e-09, Final residual = 7.11665e-09, No Iterations 0
DICPCG:  Solving for p, Initial residual = 7.11665e-09, Final residual = 7.11665e-09, No Iterations 0
diagonal:  Solving for rho, Initial residual = 0, Final residual = 0, No Iterations 0
time step continuity errors : sum local = 2.36409e-11, global = 5.07454e-12, cumulative = 1.06721e-10
DICPCG:  Solving for p, Initial residual = 7.11666e-09, Final residual = 7.11666e-09, No Iterations 0
DICPCG:  Solving for p, Initial residual = 7.11666e-09, Final residual = 7.11666e-09, No Iterations 0
DICPCG:  Solving for p, Initial residual = 7.11666e-09, Final residual = 7.11666e-09, No Iterations 0
diagonal:  Solving for rho, Initial residual = 0, Final residual = 0, No Iterations 0
time step continuity errors : sum local = 2.36409e-11, global = 5.07454e-12, cumulative = 1.11795e-10
PIMPLE: iteration 2
DILUPBiCGStab:  Solving for Ux, Initial residual = 2.76956e-08, Final residual = 2.06659e-12, No Iterations 1
DILUPBiCGStab:  Solving for Uy, Initial residual = 8.87129e-08, Final residual = 1.18022e-11, No Iterations 1
DILUPBiCGStab:  Solving for Uz, Initial residual = 1.31232e-07, Final residual = 7.56044e-12, No Iterations 1
DILUPBiCGStab:  Solving for O2, Initial residual = 2.66846e-08, Final residual = 2.10964e-12, No Iterations 1
DILUPBiCGStab:  Solving for H2, Initial residual = 2.74172e-09, Final residual = 2.0847e-13, No Iterations 1
DILUPBiCGStab:  Solving for H2O:  solution singularity
DILUPBiCGStab:  Solving for h, Initial residual = 1.92741e-08, Final residual = 1.13348e-12, No Iterations 1
min/max(T) = 273.971, 326.199
DICPCG:  Solving for p, Initial residual = 9.12382e-09, Final residual = 9.12382e-09, No Iterations 0
DICPCG:  Solving for p, Initial residual = 9.12382e-09, Final residual = 9.12382e-09, No Iterations 0
DICPCG:  Solving for p, Initial residual = 9.12382e-09, Final residual = 9.12382e-09, No Iterations 0
diagonal:  Solving for rho, Initial residual = 0, Final residual = 0, No Iterations 0
time step continuity errors : sum local = 3.03085e-11, global = 2.78633e-12, cumulative = 1.14582e-10
DICPCG:  Solving for p, Initial residual = 9.12382e-09, Final residual = 9.12382e-09, No Iterations 0
DICPCG:  Solving for p, Initial residual = 9.12382e-09, Final residual = 9.12382e-09, No Iterations 0
DICPCG:  Solving for p, Initial residual = 9.12382e-09, Final residual = 9.12382e-09, No Iterations 0
diagonal:  Solving for rho, Initial residual = 0, Final residual = 0, No Iterations 0
time step continuity errors : sum local = 3.03085e-11, global = 2.78633e-12, cumulative = 1.17368e-10
DILUPBiCGStab:  Solving for epsilon, Initial residual = 2.29163e-08, Final residual = 1.65315e-13, No Iterations 1
DILUPBiCGStab:  Solving for k, Initial residual = 1.52075e-07, Final residual = 1.21928e-10, No Iterations 1
PIMPLE: converged in 2 iterations
ExecutionTime = 0.85 s  ClockTime = 1 s

Courant Number mean: 1.04755e-10 max: 0.766776
deltaT = 5.67986e-06
Time = 0.00126697

diagonal:  Solving for rho, Initial residual = 0, Final residual = 0, No Iterations 0
PIMPLE: iteration 1
DILUPBiCGStab:  Solving for Ux, Initial residual = 3.82519e-08, Final residual = 4.04019e-12, No Iterations 1
DILUPBiCGStab:  Solving for Uy, Initial residual = 1.40226e-07, Final residual = 1.52724e-11, No Iterations 1
DILUPBiCGStab:  Solving for Uz, Initial residual = 3.4023e-08, Final residual = 2.74105e-12, No Iterations 1
DILUPBiCGStab:  Solving for O2, Initial residual = 4.5255e-09, Final residual = 2.65876e-13, No Iterations 1
DILUPBiCGStab:  Solving for H2, Initial residual = 1.37299e-09, Final residual = 5.26856e-14, No Iterations 1
DILUPBiCGStab:  Solving for H2O:  solution singularity
DILUPBiCGStab:  Solving for h, Initial residual = 1.00097e-08, Final residual = 2.67649e-13, No Iterations 1
min/max(T) = 272.052, 323.819
DICPCG:  Solving for p, Initial residual = 5.0156e-09, Final residual = 5.0156e-09, No Iterations 0
DICPCG:  Solving for p, Initial residual = 5.0156e-09, Final residual = 5.0156e-09, No Iterations 0
DICPCG:  Solving for p, Initial residual = 5.0156e-09, Final residual = 5.0156e-09, No Iterations 0
diagonal:  Solving for rho, Initial residual = 0, Final residual = 0, No Iterations 0
time step continuity errors : sum local = 1.66613e-11, global = 2.78985e-12, cumulative = 1.20158e-10
DICPCG:  Solving for p, Initial residual = 5.0156e-09, Final residual = 5.0156e-09, No Iterations 0
DICPCG:  Solving for p, Initial residual = 5.0156e-09, Final residual = 5.0156e-09, No Iterations 0
DICPCG:  Solving for p, Initial residual = 5.0156e-09, Final residual = 5.0156e-09, No Iterations 0
diagonal:  Solving for rho, Initial residual = 0, Final residual = 0, No Iterations 0
time step continuity errors : sum local = 1.66614e-11, global = 2.78985e-12, cumulative = 1.22948e-10
PIMPLE: iteration 2
DILUPBiCGStab:  Solving for Ux, Initial residual = 1.56885e-08, Final residual = 1.32568e-12, No Iterations 1
DILUPBiCGStab:  Solving for Uy, Initial residual = 5.56666e-08, Final residual = 5.24585e-12, No Iterations 1
DILUPBiCGStab:  Solving for Uz, Initial residual = 2.02971e-08, Final residual = 9.65849e-13, No Iterations 1
DILUPBiCGStab:  Solving for O2, Initial residual = 2.09755e-08, Final residual = 1.69561e-12, No Iterations 1
DILUPBiCGStab:  Solving for H2, Initial residual = 2.00196e-09, Final residual = 1.19778e-13, No Iterations 1
DILUPBiCGStab:  Solving for H2O:  solution singularity
DILUPBiCGStab:  Solving for h, Initial residual = 1.18768e-08, Final residual = 1.65682e-13, No Iterations 1
min/max(T) = 270.025, 323.517
DICPCG:  Solving for p, Initial residual = 6.72749e-09, Final residual = 6.72749e-09, No Iterations 0
DICPCG:  Solving for p, Initial residual = 6.72749e-09, Final residual = 6.72749e-09, No Iterations 0
DICPCG:  Solving for p, Initial residual = 6.72749e-09, Final residual = 6.72749e-09, No Iterations 0
diagonal:  Solving for rho, Initial residual = 0, Final residual = 0, No Iterations 0
time step continuity errors : sum local = 2.23481e-11, global = 1.17446e-12, cumulative = 1.24122e-10
DICPCG:  Solving for p, Initial residual = 6.72749e-09, Final residual = 6.72749e-09, No Iterations 0
DICPCG:  Solving for p, Initial residual = 6.72749e-09, Final residual = 6.72749e-09, No Iterations 0
DICPCG:  Solving for p, Initial residual = 6.72749e-09, Final residual = 6.72749e-09, No Iterations 0
diagonal:  Solving for rho, Initial residual = 0, Final residual = 0, No Iterations 0
time step continuity errors : sum local = 2.23481e-11, global = 1.17446e-12, cumulative = 1.25297e-10
DILUPBiCGStab:  Solving for epsilon, Initial residual = 9.46518e-09, Final residual = 1.85606e-12, No Iterations 1
DILUPBiCGStab:  Solving for k, Initial residual = 1.21894e-07, Final residual = 1.08315e-10, No Iterations 1
PIMPLE: converged in 2 iterations
ExecutionTime = 0.89 s  ClockTime = 1 s

Courant Number mean: 7.59632e-11 max: 0.645597
deltaT = 4.39889e-06
Time = 0.00127137

diagonal:  Solving for rho, Initial residual = 0, Final residual = 0, No Iterations 0
PIMPLE: iteration 1
DILUPBiCGStab:  Solving for Ux, Initial residual = 2.46366e-08, Final residual = 2.28512e-12, No Iterations 1
DILUPBiCGStab:  Solving for Uy, Initial residual = 9.69713e-08, Final residual = 9.02157e-12, No Iterations 1
DILUPBiCGStab:  Solving for Uz, Initial residual = 1.39108e-08, Final residual = 2.49205e-12, No Iterations 1
DILUPBiCGStab:  Solving for O2, Initial residual = 6.11736e-09, Final residual = 4.97073e-13, No Iterations 1
DILUPBiCGStab:  Solving for H2, Initial residual = 1.32054e-09, Final residual = 5.03672e-14, No Iterations 1
DILUPBiCGStab:  Solving for H2O:  solution singularity
DILUPBiCGStab:  Solving for h, Initial residual = 2.54818e-08, Final residual = 4.29013e-13, No Iterations 1
min/max(T) = 268.252, 321.629
DICPCG:  Solving for p, Initial residual = 4.33991e-09, Final residual = 4.33991e-09, No Iterations 0
DICPCG:  Solving for p, Initial residual = 4.33991e-09, Final residual = 4.33991e-09, No Iterations 0
DICPCG:  Solving for p, Initial residual = 4.33991e-09, Final residual = 4.33991e-09, No Iterations 0
diagonal:  Solving for rho, Initial residual = 0, Final residual = 0, No Iterations 0
time step continuity errors : sum local = 1.44167e-11, global = 2.11525e-12, cumulative = 1.27412e-10
DICPCG:  Solving for p, Initial residual = 4.33991e-09, Final residual = 4.33991e-09, No Iterations 0
DICPCG:  Solving for p, Initial residual = 4.33991e-09, Final residual = 4.33991e-09, No Iterations 0
DICPCG:  Solving for p, Initial residual = 4.33991e-09, Final residual = 4.33991e-09, No Iterations 0
diagonal:  Solving for rho, Initial residual = 0, Final residual = 0, No Iterations 0
time step continuity errors : sum local = 1.44167e-11, global = 2.11525e-12, cumulative = 1.29527e-10
PIMPLE: iteration 2
DILUPBiCGStab:  Solving for Ux, Initial residual = 1.21182e-08, Final residual = 1.1098e-12, No Iterations 1
DILUPBiCGStab:  Solving for Uy, Initial residual = 4.61782e-08, Final residual = 3.57196e-12, No Iterations 1
DILUPBiCGStab:  Solving for Uz, Initial residual = 1.23971e-08, Final residual = 6.67246e-13, No Iterations 1
DILUPBiCGStab:  Solving for O2, Initial residual = 1.97149e-08, Final residual = 2.02357e-12, No Iterations 1
DILUPBiCGStab:  Solving for H2, Initial residual = 1.77287e-09, Final residual = 3.23648e-14, No Iterations 1
DILUPBiCGStab:  Solving for H2O:  solution singularity
DILUPBiCGStab:  Solving for h, Initial residual = 3.86798e-08, Final residual = 3.54235e-13, No Iterations 1
min/max(T) = 268.536, 321.25
DICPCG:  Solving for p, Initial residual = 5.78711e-09, Final residual = 5.78711e-09, No Iterations 0
DICPCG:  Solving for p, Initial residual = 5.78711e-09, Final residual = 5.78711e-09, No Iterations 0
DICPCG:  Solving for p, Initial residual = 5.78711e-09, Final residual = 5.78711e-09, No Iterations 0
diagonal:  Solving for rho, Initial residual = 0, Final residual = 0, No Iterations 0
time step continuity errors : sum local = 1.92242e-11, global = 4.89144e-13, cumulative = 1.30016e-10
DICPCG:  Solving for p, Initial residual = 5.78711e-09, Final residual = 5.78711e-09, No Iterations 0
DICPCG:  Solving for p, Initial residual = 5.78711e-09, Final residual = 5.78711e-09, No Iterations 0
DICPCG:  Solving for p, Initial residual = 5.78711e-09, Final residual = 5.78711e-09, No Iterations 0
diagonal:  Solving for rho, Initial residual = 0, Final residual = 0, No Iterations 0
time step continuity errors : sum local = 1.92242e-11, global = 4.89144e-13, cumulative = 1.30505e-10
DILUPBiCGStab:  Solving for epsilon, Initial residual = 8.74837e-09, Final residual = 6.9784e-13, No Iterations 1
bounding epsilon, min: -69.8011 max: 3.51502e+06 average: 181.123
DILUPBiCGStab:  Solving for k, Initial residual = 5.86134e-08, Final residual = 3.11943e-11, No Iterations 1
PIMPLE: converged in 2 iterations
ExecutionTime = 0.93 s  ClockTime = 2 s

Courant Number mean: 6.35904e-11 max: 0.641155
deltaT = 3.43046e-06
Time = 0.0012748

diagonal:  Solving for rho, Initial residual = 0, Final residual = 0, No Iterations 0
PIMPLE: iteration 1
DILUPBiCGStab:  Solving for Ux, Initial residual = 1.77364e-08, Final residual = 1.07078e-12, No Iterations 1
DILUPBiCGStab:  Solving for Uy, Initial residual = 7.79742e-08, Final residual = 5.14401e-12, No Iterations 1
DILUPBiCGStab:  Solving for Uz, Initial residual = 8.13653e-09, Final residual = 8.8991e-13, No Iterations 1
DILUPBiCGStab:  Solving for O2, Initial residual = 7.46035e-09, Final residual = 3.17825e-13, No Iterations 1
DILUPBiCGStab:  Solving for H2, Initial residual = 1.30817e-09, Final residual = 3.67471e-14, No Iterations 1
DILUPBiCGStab:  Solving for H2O:  solution singularity
DILUPBiCGStab:  Solving for h, Initial residual = 1.14697e-08, Final residual = 2.26659e-13, No Iterations 1
min/max(T) = 266.798, 319.769
DICPCG:  Solving for p, Initial residual = 3.73458e-09, Final residual = 3.73458e-09, No Iterations 0
DICPCG:  Solving for p, Initial residual = 3.73458e-09, Final residual = 3.73458e-09, No Iterations 0
DICPCG:  Solving for p, Initial residual = 3.73458e-09, Final residual = 3.73458e-09, No Iterations 0
diagonal:  Solving for rho, Initial residual = 0, Final residual = 0, No Iterations 0
time step continuity errors : sum local = 1.24059e-11, global = 1.67498e-12, cumulative = 1.3218e-10
DICPCG:  Solving for p, Initial residual = 3.73458e-09, Final residual = 3.73458e-09, No Iterations 0
DICPCG:  Solving for p, Initial residual = 3.73458e-09, Final residual = 3.73458e-09, No Iterations 0
DICPCG:  Solving for p, Initial residual = 3.73458e-09, Final residual = 3.73458e-09, No Iterations 0
diagonal:  Solving for rho, Initial residual = 0, Final residual = 0, No Iterations 0
time step continuity errors : sum local = 1.24059e-11, global = 1.67498e-12, cumulative = 1.33855e-10
PIMPLE: iteration 2
DILUPBiCGStab:  Solving for Ux, Initial residual = 9.88559e-09, Final residual = 5.8757e-13, No Iterations 1
DILUPBiCGStab:  Solving for Uy, Initial residual = 4.09231e-08, Final residual = 2.04224e-12, No Iterations 1
DILUPBiCGStab:  Solving for Uz, Initial residual = 8.8337e-09, Final residual = 3.48038e-13, No Iterations 1
DILUPBiCGStab:  Solving for O2, Initial residual = 1.81727e-08, Final residual = 1.56225e-12, No Iterations 1
DILUPBiCGStab:  Solving for H2, Initial residual = 1.58513e-09, Final residual = 2.51998e-14, No Iterations 1
DILUPBiCGStab:  Solving for H2O:  solution singularity
DILUPBiCGStab:  Solving for h, Initial residual = 1.1817e-08, Final residual = 7.11858e-14, No Iterations 1
min/max(T) = 253.437, 319.457
DICPCG:  Solving for p, Initial residual = 4.9521e-09, Final residual = 4.9521e-09, No Iterations 0
DICPCG:  Solving for p, Initial residual = 4.9521e-09, Final residual = 4.9521e-09, No Iterations 0
DICPCG:  Solving for p, Initial residual = 4.9521e-09, Final residual = 4.9521e-09, No Iterations 0
diagonal:  Solving for rho, Initial residual = 0, Final residual = 0, No Iterations 0
time step continuity errors : sum local = 1.64504e-11, global = 1.61784e-13, cumulative = 1.34017e-10
DICPCG:  Solving for p, Initial residual = 4.9521e-09, Final residual = 4.9521e-09, No Iterations 0
DICPCG:  Solving for p, Initial residual = 4.9521e-09, Final residual = 4.9521e-09, No Iterations 0
DICPCG:  Solving for p, Initial residual = 4.9521e-09, Final residual = 4.9521e-09, No Iterations 0
diagonal:  Solving for rho, Initial residual = 0, Final residual = 0, No Iterations 0
time step continuity errors : sum local = 1.64504e-11, global = 1.61784e-13, cumulative = 1.34179e-10
DILUPBiCGStab:  Solving for epsilon, Initial residual = 9.93609e-09, Final residual = 6.48575e-13, No Iterations 1
DILUPBiCGStab:  Solving for k, Initial residual = 3.72363e-08, Final residual = 1.73777e-11, No Iterations 1
PIMPLE: converged in 2 iterations
ExecutionTime = 0.97 s  ClockTime = 2 s

Courant Number mean: 5.22406e-11 max: 0.56853
deltaT = 3.017e-06
Time = 0.00127782

diagonal:  Solving for rho, Initial residual = 0, Final residual = 0, No Iterations 0
PIMPLE: iteration 1
DILUPBiCGStab:  Solving for Ux, Initial residual = 1.54481e-08, Final residual = 4.25516e-13, No Iterations 1
DILUPBiCGStab:  Solving for Uy, Initial residual = 7.17822e-08, Final residual = 2.23201e-12, No Iterations 1
DILUPBiCGStab:  Solving for Uz, Initial residual = 7.1029e-09, Final residual = 4.30427e-13, No Iterations 1
DILUPBiCGStab:  Solving for O2, Initial residual = 9.40334e-09, Final residual = 3.48582e-13, No Iterations 1
DILUPBiCGStab:  Solving for H2, Initial residual = 1.40547e-09, Final residual = 2.47577e-14, No Iterations 1
DILUPBiCGStab:  Solving for H2O:  solution singularity
DILUPBiCGStab:  Solving for h, Initial residual = 3.777e-09, Final residual = 5.49682e-14, No Iterations 1
min/max(T) = 262.03, 318.17
DICPCG:  Solving for p, Initial residual = 3.52511e-09, Final residual = 3.52511e-09, No Iterations 0
DICPCG:  Solving for p, Initial residual = 3.52511e-09, Final residual = 3.52511e-09, No Iterations 0
DICPCG:  Solving for p, Initial residual = 3.52511e-09, Final residual = 3.52511e-09, No Iterations 0
diagonal:  Solving for rho, Initial residual = 0, Final residual = 0, No Iterations 0
time step continuity errors : sum local = 1.17101e-11, global = 1.53615e-12, cumulative = 1.35715e-10
DICPCG:  Solving for p, Initial residual = 3.52511e-09, Final residual = 3.52511e-09, No Iterations 0
DICPCG:  Solving for p, Initial residual = 3.52511e-09, Final residual = 3.52511e-09, No Iterations 0
DICPCG:  Solving for p, Initial residual = 3.52511e-09, Final residual = 3.52511e-09, No Iterations 0
diagonal:  Solving for rho, Initial residual = 0, Final residual = 0, No Iterations 0
time step continuity errors : sum local = 1.17101e-11, global = 1.53615e-12, cumulative = 1.37251e-10
PIMPLE: iteration 2
DILUPBiCGStab:  Solving for Ux, Initial residual = 9.47775e-09, Final residual = 2.96865e-13, No Iterations 1
DILUPBiCGStab:  Solving for Uy, Initial residual = 3.98783e-08, Final residual = 1.59736e-12, No Iterations 1
DILUPBiCGStab:  Solving for Uz, Initial residual = 8.03046e-09, Final residual = 1.85304e-13, No Iterations 1
DILUPBiCGStab:  Solving for O2, Initial residual = 1.80481e-08, Final residual = 1.03548e-12, No Iterations 1
DILUPBiCGStab:  Solving for H2, Initial residual = 1.60941e-09, Final residual = 1.27146e-14, No Iterations 1
DILUPBiCGStab:  Solving for H2O:  solution singularity
DILUPBiCGStab:  Solving for h, Initial residual = 6.34535e-09, Final residual = 1.81848e-14, No Iterations 1
min/max(T) = 229.16, 317.887
DICPCG:  Solving for p, Initial residual = 4.69067e-09, Final residual = 4.69067e-09, No Iterations 0
DICPCG:  Solving for p, Initial residual = 4.69067e-09, Final residual = 4.69067e-09, No Iterations 0
DICPCG:  Solving for p, Initial residual = 4.69067e-09, Final residual = 4.69067e-09, No Iterations 0
diagonal:  Solving for rho, Initial residual = 0, Final residual = 0, No Iterations 0
time step continuity errors : sum local = 1.5582e-11, global = 5.54295e-15, cumulative = 1.37257e-10
DICPCG:  Solving for p, Initial residual = 4.69067e-09, Final residual = 4.69067e-09, No Iterations 0
DICPCG:  Solving for p, Initial residual = 4.69067e-09, Final residual = 4.69067e-09, No Iterations 0
DICPCG:  Solving for p, Initial residual = 4.69067e-09, Final residual = 4.69067e-09, No Iterations 0
diagonal:  Solving for rho, Initial residual = 0, Final residual = 0, No Iterations 0
time step continuity errors : sum local = 1.5582e-11, global = 5.54295e-15, cumulative = 1.37262e-10
DILUPBiCGStab:  Solving for epsilon, Initial residual = 8.97997e-09, Final residual = 3.62749e-13, No Iterations 1
DILUPBiCGStab:  Solving for k, Initial residual = 2.5363e-08, Final residual = 7.1973e-12, No Iterations 1
PIMPLE: converged in 2 iterations
ExecutionTime = 1.02 s  ClockTime = 2 s

Courant Number mean: 4.77783e-11 max: 0.516707
deltaT = 2.91948e-06
Time = 0.00128074

diagonal:  Solving for rho, Initial residual = 0, Final residual = 0, No Iterations 0
PIMPLE: iteration 1
DILUPBiCGStab:  Solving for Ux, Initial residual = 1.573e-08, Final residual = 5.58295e-13, No Iterations 1
DILUPBiCGStab:  Solving for Uy, Initial residual = 7.32815e-08, Final residual = 1.72239e-12, No Iterations 1
DILUPBiCGStab:  Solving for Uz, Initial residual = 7.32681e-09, Final residual = 3.68006e-13, No Iterations 1
DILUPBiCGStab:  Solving for O2, Initial residual = 1.26524e-08, Final residual = 4.81134e-13, No Iterations 1
DILUPBiCGStab:  Solving for H2, Initial residual = 1.61956e-09, Final residual = 2.81525e-14, No Iterations 1
DILUPBiCGStab:  Solving for H2O:  solution singularity
DILUPBiCGStab:  Solving for h, Initial residual = 3.31773e-09, Final residual = 3.08152e-14, No Iterations 1
min/max(T) = 248.905, 316.669
DICPCG:  Solving for p, Initial residual = 3.63292e-09, Final residual = 3.63292e-09, No Iterations 0
DICPCG:  Solving for p, Initial residual = 3.63292e-09, Final residual = 3.63292e-09, No Iterations 0
DICPCG:  Solving for p, Initial residual = 3.63292e-09, Final residual = 3.63292e-09, No Iterations 0
diagonal:  Solving for rho, Initial residual = 0, Final residual = 0, No Iterations 0
time step continuity errors : sum local = 1.20682e-11, global = 1.5363e-12, cumulative = 1.38799e-10
DICPCG:  Solving for p, Initial residual = 3.63292e-09, Final residual = 3.63292e-09, No Iterations 0
DICPCG:  Solving for p, Initial residual = 3.63292e-09, Final residual = 3.63292e-09, No Iterations 0
DICPCG:  Solving for p, Initial residual = 3.63292e-09, Final residual = 3.63292e-09, No Iterations 0
diagonal:  Solving for rho, Initial residual = 0, Final residual = 0, No Iterations 0
time step continuity errors : sum local = 1.20682e-11, global = 1.5363e-12, cumulative = 1.40335e-10
PIMPLE: iteration 2
DILUPBiCGStab:  Solving for Ux, Initial residual = 9.44459e-09, Final residual = 3.03114e-13, No Iterations 1
DILUPBiCGStab:  Solving for Uy, Initial residual = 4.10652e-08, Final residual = 1.68248e-12, No Iterations 1
DILUPBiCGStab:  Solving for Uz, Initial residual = 7.9854e-09, Final residual = 1.95561e-13, No Iterations 1
DILUPBiCGStab:  Solving for O2, Initial residual = 1.91912e-08, Final residual = 9.66747e-13, No Iterations 1
DILUPBiCGStab:  Solving for H2, Initial residual = 1.78696e-09, Final residual = 1.24988e-14, No Iterations 1
DILUPBiCGStab:  Solving for H2O:  solution singularity
DILUPBiCGStab:  Solving for h, Initial residual = 3.99475e-09, Final residual = 1.11303e-14, No Iterations 1
min/max(T) = 217.131, 316.388
DICPCG:  Solving for p, Initial residual = 4.81957e-09, Final residual = 4.81957e-09, No Iterations 0
DICPCG:  Solving for p, Initial residual = 4.81957e-09, Final residual = 4.81957e-09, No Iterations 0
DICPCG:  Solving for p, Initial residual = 4.81957e-09, Final residual = 4.81957e-09, No Iterations 0
diagonal:  Solving for rho, Initial residual = 0, Final residual = 0, No Iterations 0
time step continuity errors : sum local = 1.60102e-11, global = -8.42821e-14, cumulative = 1.40251e-10
DICPCG:  Solving for p, Initial residual = 4.81957e-09, Final residual = 4.81957e-09, No Iterations 0
DICPCG:  Solving for p, Initial residual = 4.81957e-09, Final residual = 4.81957e-09, No Iterations 0
DICPCG:  Solving for p, Initial residual = 4.81957e-09, Final residual = 4.81957e-09, No Iterations 0
diagonal:  Solving for rho, Initial residual = 0, Final residual = 0, No Iterations 0
time step continuity errors : sum local = 1.60102e-11, global = -8.42821e-14, cumulative = 1.40166e-10
DILUPBiCGStab:  Solving for epsilon, Initial residual = 9.77408e-09, Final residual = 2.47926e-13, No Iterations 1
DILUPBiCGStab:  Solving for k, Initial residual = 1.99242e-08, Final residual = 5.19637e-12, No Iterations 1
PIMPLE: converged in 2 iterations
ExecutionTime = 1.05 s  ClockTime = 2 s

Courant Number mean: 4.77328e-11 max: 0.544124
deltaT = 2.68273e-06
Time = 0.00128342

diagonal:  Solving for rho, Initial residual = 0, Final residual = 0, No Iterations 0
PIMPLE: iteration 1
DILUPBiCGStab:  Solving for Ux, Initial residual = 1.43691e-08, Final residual = 2.78105e-13, No Iterations 1
DILUPBiCGStab:  Solving for Uy, Initial residual = 5.99572e-08, Final residual = 1.64227e-12, No Iterations 1
DILUPBiCGStab:  Solving for Uz, Initial residual = 7.01463e-09, Final residual = 1.93021e-13, No Iterations 1
DILUPBiCGStab:  Solving for O2, Initial residual = 1.60962e-08, Final residual = 5.19451e-13, No Iterations 1
DILUPBiCGStab:  Solving for H2, Initial residual = 1.70961e-09, Final residual = 1.72864e-14, No Iterations 1
DILUPBiCGStab:  Solving for H2O:  solution singularity
DILUPBiCGStab:  Solving for h, Initial residual = 3.17037e-09, Final residual = 1.9838e-14, No Iterations 1
min/max(T) = 236.437, 315.51
DICPCG:  Solving for p, Initial residual = 3.51977e-09, Final residual = 3.51977e-09, No Iterations 0
DICPCG:  Solving for p, Initial residual = 3.51977e-09, Final residual = 3.51977e-09, No Iterations 0
DICPCG:  Solving for p, Initial residual = 3.51977e-09, Final residual = 3.51977e-09, No Iterations 0
diagonal:  Solving for rho, Initial residual = 0, Final residual = 0, No Iterations 0
time step continuity errors : sum local = 1.16923e-11, global = 1.43882e-12, cumulative = 1.41605e-10
DICPCG:  Solving for p, Initial residual = 3.51977e-09, Final residual = 3.51977e-09, No Iterations 0
DICPCG:  Solving for p, Initial residual = 3.51977e-09, Final residual = 3.51977e-09, No Iterations 0
DICPCG:  Solving for p, Initial residual = 3.51977e-09, Final residual = 3.51977e-09, No Iterations 0
diagonal:  Solving for rho, Initial residual = 0, Final residual = 0, No Iterations 0
time step continuity errors : sum local = 1.16923e-11, global = 1.43882e-12, cumulative = 1.43044e-10
PIMPLE: iteration 2
DILUPBiCGStab:  Solving for Ux, Initial residual = 8.75805e-09, Final residual = 1.58496e-13, No Iterations 1
DILUPBiCGStab:  Solving for Uy, Initial residual = 3.5915e-08, Final residual = 7.92781e-13, No Iterations 1
DILUPBiCGStab:  Solving for Uz, Initial residual = 7.50226e-09, Final residual = 1.30876e-13, No Iterations 1
DILUPBiCGStab:  Solving for O2, Initial residual = 1.96812e-08, Final residual = 6.45226e-13, No Iterations 1
DILUPBiCGStab:  Solving for H2, Initial residual = 1.81888e-09, Final residual = 8.27058e-15, No Iterations 1
DILUPBiCGStab:  Solving for H2O:  solution singularity
DILUPBiCGStab:  Solving for h, Initial residual = 3.12117e-09, Final residual = 8.13218e-15, No Iterations 1
min/max(T) = 200, 315.327
DICPCG:  Solving for p, Initial residual = 4.64846e-09, Final residual = 4.64846e-09, No Iterations 0
DICPCG:  Solving for p, Initial residual = 4.64846e-09, Final residual = 4.64846e-09, No Iterations 0
DICPCG:  Solving for p, Initial residual = 4.64846e-09, Final residual = 4.64846e-09, No Iterations 0
diagonal:  Solving for rho, Initial residual = 0, Final residual = 0, No Iterations 0
time step continuity errors : sum local = 1.54417e-11, global = -1.79066e-13, cumulative = 1.42865e-10
DICPCG:  Solving for p, Initial residual = 4.64846e-09, Final residual = 4.64846e-09, No Iterations 0
DICPCG:  Solving for p, Initial residual = 4.64846e-09, Final residual = 4.64846e-09, No Iterations 0
DICPCG:  Solving for p, Initial residual = 4.64846e-09, Final residual = 4.64846e-09, No Iterations 0
diagonal:  Solving for rho, Initial residual = 0, Final residual = 0, No Iterations 0
time step continuity errors : sum local = 1.54417e-11, global = -1.79066e-13, cumulative = 1.42686e-10
DILUPBiCGStab:  Solving for epsilon, Initial residual = 8.66448e-09, Final residual = 1.20137e-13, No Iterations 1
DILUPBiCGStab:  Solving for k, Initial residual = 1.51526e-08, Final residual = 2.29303e-12, No Iterations 1
PIMPLE: converged in 2 iterations
ExecutionTime = 1.09 s  ClockTime = 2 s

Courant Number mean: 4.51155e-11 max: 0.550232
deltaT = 2.43781e-06
Time = 0.00128586

diagonal:  Solving for rho, Initial residual = 0, Final residual = 0, No Iterations 0
PIMPLE: iteration 1
DILUPBiCGStab:  Solving for Ux, Initial residual = 1.29074e-08, Final residual = 1.65707e-13, No Iterations 1
DILUPBiCGStab:  Solving for Uy, Initial residual = 5.60143e-08, Final residual = 1.21668e-12, No Iterations 1
DILUPBiCGStab:  Solving for Uz, Initial residual = 6.80896e-09, Final residual = 1.03526e-13, No Iterations 1
DILUPBiCGStab:  Solving for O2, Initial residual = 2.05969e-08, Final residual = 4.64898e-13, No Iterations 1
DILUPBiCGStab:  Solving for H2, Initial residual = 1.78026e-09, Final residual = 1.05099e-14, No Iterations 1
DILUPBiCGStab:  Solving for H2O:  solution singularity
DILUPBiCGStab:  Solving for h, Initial residual = 3.21163e-09, Final residual = 1.33747e-14, No Iterations 1
min/max(T) = 227.36, 314.532
DICPCG:  Solving for p, Initial residual = 3.33906e-09, Final residual = 3.33906e-09, No Iterations 0
DICPCG:  Solving for p, Initial residual = 3.33906e-09, Final residual = 3.33906e-09, No Iterations 0
DICPCG:  Solving for p, Initial residual = 3.33906e-09, Final residual = 3.33906e-09, No Iterations 0
diagonal:  Solving for rho, Initial residual = 0, Final residual = 0, No Iterations 0
time step continuity errors : sum local = 1.1092e-11, global = 1.3257e-12, cumulative = 1.44011e-10
DICPCG:  Solving for p, Initial residual = 3.33906e-09, Final residual = 3.33906e-09, No Iterations 0
DICPCG:  Solving for p, Initial residual = 3.33906e-09, Final residual = 3.33906e-09, No Iterations 0
DICPCG:  Solving for p, Initial residual = 3.33906e-09, Final residual = 3.33906e-09, No Iterations 0
diagonal:  Solving for rho, Initial residual = 0, Final residual = 0, No Iterations 0
time step continuity errors : sum local = 1.1092e-11, global = 1.3257e-12, cumulative = 1.45337e-10
PIMPLE: iteration 2
DILUPBiCGStab:  Solving for Ux, Initial residual = 8.3725e-09, Final residual = 9.54812e-14, No Iterations 1
DILUPBiCGStab:  Solving for Uy, Initial residual = 3.51579e-08, Final residual = 5.18913e-13, No Iterations 1
DILUPBiCGStab:  Solving for Uz, Initial residual = 7.37664e-09, Final residual = 7.62763e-14, No Iterations 1
DILUPBiCGStab:  Solving for O2, Initial residual = 2.0212e-08, Final residual = 4.21517e-13, No Iterations 1
DILUPBiCGStab:  Solving for H2, Initial residual = 1.83394e-09, Final residual = 4.93102e-15, No Iterations 1
DILUPBiCGStab:  Solving for H2O:  solution singularity
DILUPBiCGStab:  Solving for h, Initial residual = 3.07039e-09, Final residual = 5.28253e-15, No Iterations 1
min/max(T) = 200, 314.361
DICPCG:  Solving for p, Initial residual = 4.39978e-09, Final residual = 4.39978e-09, No Iterations 0
DICPCG:  Solving for p, Initial residual = 4.39978e-09, Final residual = 4.39978e-09, No Iterations 0
DICPCG:  Solving for p, Initial residual = 4.39978e-09, Final residual = 4.39978e-09, No Iterations 0
diagonal:  Solving for rho, Initial residual = 0, Final residual = 0, No Iterations 0
time step continuity errors : sum local = 1.46156e-11, global = -2.45475e-13, cumulative = 1.45092e-10
DICPCG:  Solving for p, Initial residual = 4.39978e-09, Final residual = 4.39978e-09, No Iterations 0
DICPCG:  Solving for p, Initial residual = 4.39978e-09, Final residual = 4.39978e-09, No Iterations 0
DICPCG:  Solving for p, Initial residual = 4.39978e-09, Final residual = 4.39978e-09, No Iterations 0
diagonal:  Solving for rho, Initial residual = 0, Final residual = 0, No Iterations 0
time step continuity errors : sum local = 1.46156e-11, global = -2.45475e-13, cumulative = 1.44846e-10
DILUPBiCGStab:  Solving for epsilon, Initial residual = 8.04567e-09, Final residual = 5.21426e-14, No Iterations 1
DILUPBiCGStab:  Solving for k, Initial residual = 1.18134e-08, Final residual = 1.04838e-12, No Iterations 1
PIMPLE: converged in 2 iterations
ExecutionTime = 1.13 s  ClockTime = 2 s

Courant Number mean: 4.20675e-11 max: 0.568748
deltaT = 2.14312e-06
Time = 0.001288

diagonal:  Solving for rho, Initial residual = 0, Final residual = 0, No Iterations 0
PIMPLE: iteration 1
DILUPBiCGStab:  Solving for Ux, Initial residual = 1.14187e-08, Final residual = 1.23783e-13, No Iterations 1
DILUPBiCGStab:  Solving for Uy, Initial residual = 5.2699e-08, Final residual = 8.18747e-13, No Iterations 1
DILUPBiCGStab:  Solving for Uz, Initial residual = 6.38858e-09, Final residual = 6.39265e-14, No Iterations 1
DILUPBiCGStab:  Solving for O2, Initial residual = 2.65446e-08, Final residual = 3.6781e-13, No Iterations 1
DILUPBiCGStab:  Solving for H2, Initial residual = 1.79323e-09, Final residual = 5.86062e-15, No Iterations 1
DILUPBiCGStab:  Solving for H2O:  solution singularity
DILUPBiCGStab:  Solving for h, Initial residual = 3.23214e-09, Final residual = 7.69307e-15, No Iterations 1
min/max(T) = 211.881, 313.667
DICPCG:  Solving for p, Initial residual = 3.04154e-09, Final residual = 3.04154e-09, No Iterations 0
DICPCG:  Solving for p, Initial residual = 3.04154e-09, Final residual = 3.04154e-09, No Iterations 0
DICPCG:  Solving for p, Initial residual = 3.04154e-09, Final residual = 3.04154e-09, No Iterations 0
diagonal:  Solving for rho, Initial residual = 0, Final residual = 0, No Iterations 0
time step continuity errors : sum local = 1.01037e-11, global = 1.16104e-12, cumulative = 1.46007e-10
DICPCG:  Solving for p, Initial residual = 3.04154e-09, Final residual = 3.04154e-09, No Iterations 0
DICPCG:  Solving for p, Initial residual = 3.04154e-09, Final residual = 3.04154e-09, No Iterations 0
DICPCG:  Solving for p, Initial residual = 3.04154e-09, Final residual = 3.04154e-09, No Iterations 0
diagonal:  Solving for rho, Initial residual = 0, Final residual = 0, No Iterations 0
time step continuity errors : sum local = 1.01037e-11, global = 1.16104e-12, cumulative = 1.47168e-10
PIMPLE: iteration 2
DILUPBiCGStab:  Solving for Ux, Initial residual = 7.62472e-09, Final residual = 5.10344e-14, No Iterations 1
DILUPBiCGStab:  Solving for Uy, Initial residual = 3.3674e-08, Final residual = 3.69968e-13, No Iterations 1
DILUPBiCGStab:  Solving for Uz, Initial residual = 6.80301e-09, Final residual = 4.66388e-14, No Iterations 1
DILUPBiCGStab:  Solving for O2, Initial residual = 2.04212e-08, Final residual = 2.80751e-13, No Iterations 1
DILUPBiCGStab:  Solving for H2, Initial residual = 1.77348e-09, Final residual = 2.84246e-15, No Iterations 1
DILUPBiCGStab:  Solving for H2O:  solution singularity
DILUPBiCGStab:  Solving for h, Initial residual = 2.80291e-09, Final residual = 3.14138e-15, No Iterations 1
min/max(T) = 200, 313.511
DICPCG:  Solving for p, Initial residual = 3.98974e-09, Final residual = 3.98974e-09, No Iterations 0
DICPCG:  Solving for p, Initial residual = 3.98974e-09, Final residual = 3.98974e-09, No Iterations 0
DICPCG:  Solving for p, Initial residual = 3.98974e-09, Final residual = 3.98974e-09, No Iterations 0
diagonal:  Solving for rho, Initial residual = 0, Final residual = 0, No Iterations 0
time step continuity errors : sum local = 1.32535e-11, global = -2.7367e-13, cumulative = 1.46895e-10
DICPCG:  Solving for p, Initial residual = 3.98974e-09, Final residual = 3.98974e-09, No Iterations 0
DICPCG:  Solving for p, Initial residual = 3.98974e-09, Final residual = 3.98974e-09, No Iterations 0
DICPCG:  Solving for p, Initial residual = 3.98974e-09, Final residual = 3.98974e-09, No Iterations 0
diagonal:  Solving for rho, Initial residual = 0, Final residual = 0, No Iterations 0
time step continuity errors : sum local = 1.32535e-11, global = -2.7367e-13, cumulative = 1.46621e-10
DILUPBiCGStab:  Solving for epsilon, Initial residual = 6.74302e-09, Final residual = 2.1572e-14, No Iterations 1
DILUPBiCGStab:  Solving for k, Initial residual = 9.05943e-09, Final residual = 5.89922e-13, No Iterations 1
PIMPLE: converged in 2 iterations
ExecutionTime = 1.16 s  ClockTime = 2 s

Courant Number mean: 3.77598e-11 max: 0.531358
deltaT = 2.01663e-06
Time = 0.00129002

diagonal:  Solving for rho, Initial residual = 0, Final residual = 0, No Iterations 0
PIMPLE: iteration 1
DILUPBiCGStab:  Solving for Ux, Initial residual = 1.07655e-08, Final residual = 9.4384e-14, No Iterations 1
DILUPBiCGStab:  Solving for Uy, Initial residual = 5.05389e-08, Final residual = 6.47109e-13, No Iterations 1
DILUPBiCGStab:  Solving for Uz, Initial residual = 6.32541e-09, Final residual = 4.91844e-14, No Iterations 1
DILUPBiCGStab:  Solving for O2, Initial residual = 3.56919e-08, Final residual = 4.87472e-13, No Iterations 1
DILUPBiCGStab:  Solving for H2, Initial residual = 1.87136e-09, Final residual = 5.56444e-15, No Iterations 1
DILUPBiCGStab:  Solving for H2O:  solution singularity
DILUPBiCGStab:  Solving for h, Initial residual = 3.32201e-09, Final residual = 6.49082e-15, No Iterations 1
min/max(T) = 212.409, 312.84
DICPCG:  Solving for p, Initial residual = 2.93479e-09, Final residual = 2.93479e-09, No Iterations 0
DICPCG:  Solving for p, Initial residual = 2.93479e-09, Final residual = 2.93479e-09, No Iterations 0
DICPCG:  Solving for p, Initial residual = 2.93479e-09, Final residual = 2.93479e-09, No Iterations 0
diagonal:  Solving for rho, Initial residual = 0, Final residual = 0, No Iterations 0
time step continuity errors : sum local = 9.74905e-12, global = 1.07263e-12, cumulative = 1.47694e-10
DICPCG:  Solving for p, Initial residual = 2.93479e-09, Final residual = 2.93479e-09, No Iterations 0
DICPCG:  Solving for p, Initial residual = 2.93479e-09, Final residual = 2.93479e-09, No Iterations 0
DICPCG:  Solving for p, Initial residual = 2.93479e-09, Final residual = 2.93479e-09, No Iterations 0
diagonal:  Solving for rho, Initial residual = 0, Final residual = 0, No Iterations 0
time step continuity errors : sum local = 9.74905e-12, global = 1.07263e-12, cumulative = 1.48766e-10
PIMPLE: iteration 2
DILUPBiCGStab:  Solving for Ux, Initial residual = 7.38183e-09, Final residual = 3.49741e-14, No Iterations 1
DILUPBiCGStab:  Solving for Uy, Initial residual = 3.29571e-08, Final residual = 2.80036e-13, No Iterations 1
DILUPBiCGStab:  Solving for Uz, Initial residual = 6.72103e-09, Final residual = 3.67443e-14, No Iterations 1
DILUPBiCGStab:  Solving for O2, Initial residual = 2.10743e-08, Final residual = 2.63371e-13, No Iterations 1
DILUPBiCGStab:  Solving for H2, Initial residual = 1.76173e-09, Final residual = 2.6865e-15, No Iterations 1
DILUPBiCGStab:  Solving for H2O:  solution singularity
DILUPBiCGStab:  Solving for h, Initial residual = 2.65585e-09, Final residual = 3.01998e-15, No Iterations 1
min/max(T) = 200, 312.666
DICPCG:  Solving for p, Initial residual = 3.83513e-09, Final residual = 3.83513e-09, No Iterations 0
DICPCG:  Solving for p, Initial residual = 3.83513e-09, Final residual = 3.83513e-09, No Iterations 0
DICPCG:  Solving for p, Initial residual = 3.83513e-09, Final residual = 3.83513e-09, No Iterations 0
diagonal:  Solving for rho, Initial residual = 0, Final residual = 0, No Iterations 0
time step continuity errors : sum local = 1.27399e-11, global = -3.08836e-13, cumulative = 1.48457e-10
DICPCG:  Solving for p, Initial residual = 3.83513e-09, Final residual = 3.83513e-09, No Iterations 0
DICPCG:  Solving for p, Initial residual = 3.83513e-09, Final residual = 3.83513e-09, No Iterations 0
DICPCG:  Solving for p, Initial residual = 3.83513e-09, Final residual = 3.83513e-09, No Iterations 0
diagonal:  Solving for rho, Initial residual = 0, Final residual = 0, No Iterations 0
time step continuity errors : sum local = 1.27399e-11, global = -3.08836e-13, cumulative = 1.48149e-10
DILUPBiCGStab:  Solving for epsilon, Initial residual = 6.50934e-09, Final residual = 1.3817e-14, No Iterations 1
DILUPBiCGStab:  Solving for k, Initial residual = 7.64405e-09, Final residual = 3.87301e-13, No Iterations 1
PIMPLE: converged in 2 iterations
ExecutionTime = 1.2 s  ClockTime = 2 s

Courant Number mean: 3.61716e-11 max: 0.528769
deltaT = 1.90692e-06
Time = 0.00129193

diagonal:  Solving for rho, Initial residual = 0, Final residual = 0, No Iterations 0
PIMPLE: iteration 1
DILUPBiCGStab:  Solving for Ux, Initial residual = 1.01818e-08, Final residual = 6.17303e-14, No Iterations 1
DILUPBiCGStab:  Solving for Uy, Initial residual = 4.99469e-08, Final residual = 5.30454e-13, No Iterations 1
DILUPBiCGStab:  Solving for Uz, Initial residual = 6.25359e-09, Final residual = 3.98937e-14, No Iterations 1
DILUPBiCGStab:  Solving for O2, Initial residual = 4.64377e-08, Final residual = 5.5221e-13, No Iterations 1
DILUPBiCGStab:  Solving for H2, Initial residual = 1.92368e-09, Final residual = 4.48722e-15, No Iterations 1
DILUPBiCGStab:  Solving for H2O:  solution singularity
DILUPBiCGStab:  Solving for h, Initial residual = 3.34138e-09, Final residual = 5.27293e-15, No Iterations 1
min/max(T) = 212.918, 312.01
DICPCG:  Solving for p, Initial residual = 2.82668e-09, Final residual = 2.82668e-09, No Iterations 0
DICPCG:  Solving for p, Initial residual = 2.82668e-09, Final residual = 2.82668e-09, No Iterations 0
DICPCG:  Solving for p, Initial residual = 2.82668e-09, Final residual = 2.82668e-09, No Iterations 0
diagonal:  Solving for rho, Initial residual = 0, Final residual = 0, No Iterations 0
time step continuity errors : sum local = 9.38996e-12, global = 9.92089e-13, cumulative = 1.49141e-10
DICPCG:  Solving for p, Initial residual = 2.82668e-09, Final residual = 2.82668e-09, No Iterations 0
DICPCG:  Solving for p, Initial residual = 2.82668e-09, Final residual = 2.82668e-09, No Iterations 0
DICPCG:  Solving for p, Initial residual = 2.82668e-09, Final residual = 2.82668e-09, No Iterations 0
diagonal:  Solving for rho, Initial residual = 0, Final residual = 0, No Iterations 0
time step continuity errors : sum local = 9.38996e-12, global = 9.92089e-13, cumulative = 1.50133e-10
PIMPLE: iteration 2
DILUPBiCGStab:  Solving for Ux, Initial residual = 7.0015e-09, Final residual = 2.73253e-14, No Iterations 1
DILUPBiCGStab:  Solving for Uy, Initial residual = 3.25165e-08, Final residual = 2.14039e-13, No Iterations 1
DILUPBiCGStab:  Solving for Uz, Initial residual = 6.61136e-09, Final residual = 2.91594e-14, No Iterations 1
DILUPBiCGStab:  Solving for O2, Initial residual = 2.14789e-08, Final residual = 2.2751e-13, No Iterations 1
DILUPBiCGStab:  Solving for H2, Initial residual = 1.75309e-09, Final residual = 2.1274e-15, No Iterations 1
DILUPBiCGStab:  Solving for H2O:  solution singularity
DILUPBiCGStab:  Solving for h, Initial residual = 2.54264e-09, Final residual = 2.5657e-15, No Iterations 1
min/max(T) = 200, 311.839
DICPCG:  Solving for p, Initial residual = 3.68244e-09, Final residual = 3.68244e-09, No Iterations 0
DICPCG:  Solving for p, Initial residual = 3.68244e-09, Final residual = 3.68244e-09, No Iterations 0
DICPCG:  Solving for p, Initial residual = 3.68244e-09, Final residual = 3.68244e-09, No Iterations 0
diagonal:  Solving for rho, Initial residual = 0, Final residual = 0, No Iterations 0
time step continuity errors : sum local = 1.22327e-11, global = -3.50425e-13, cumulative = 1.49782e-10
DICPCG:  Solving for p, Initial residual = 3.68244e-09, Final residual = 3.68244e-09, No Iterations 0
DICPCG:  Solving for p, Initial residual = 3.68244e-09, Final residual = 3.68244e-09, No Iterations 0
DICPCG:  Solving for p, Initial residual = 3.68244e-09, Final residual = 3.68244e-09, No Iterations 0
diagonal:  Solving for rho, Initial residual = 0, Final residual = 0, No Iterations 0
time step continuity errors : sum local = 1.22327e-11, global = -3.50425e-13, cumulative = 1.49432e-10
DILUPBiCGStab:  Solving for epsilon, Initial residual = 7.52234e-09, Final residual = 7.0269e-15, No Iterations 1
DILUPBiCGStab:  Solving for k, Initial residual = 6.78293e-09, Final residual = 2.47344e-13, No Iterations 1
PIMPLE: converged in 2 iterations
ExecutionTime = 1.24 s  ClockTime = 2 s

Courant Number mean: 3.47675e-11 max: 0.530621
deltaT = 1.79688e-06
Time = 0.00129372

diagonal:  Solving for rho, Initial residual = 0, Final residual = 0, No Iterations 0
PIMPLE: iteration 1
DILUPBiCGStab:  Solving for Ux, Initial residual = 9.57596e-09, Final residual = 3.7212e-14, No Iterations 1
DILUPBiCGStab:  Solving for Uy, Initial residual = 4.94155e-08, Final residual = 4.27311e-13, No Iterations 1
DILUPBiCGStab:  Solving for Uz, Initial residual = 6.17199e-09, Final residual = 3.19885e-14, No Iterations 1
DILUPBiCGStab:  Solving for O2, Initial residual = 6.09413e-08, Final residual = 6.20728e-13, No Iterations 1
DILUPBiCGStab:  Solving for H2, Initial residual = 1.96162e-09, Final residual = 3.76021e-15, No Iterations 1
DILUPBiCGStab:  Solving for H2O:  solution singularity
DILUPBiCGStab:  Solving for h, Initial residual = 3.35442e-09, Final residual = 4.28524e-15, No Iterations 1
min/max(T) = 213.038, 311.232
DICPCG:  Solving for p, Initial residual = 2.71021e-09, Final residual = 2.71021e-09, No Iterations 0
DICPCG:  Solving for p, Initial residual = 2.71021e-09, Final residual = 2.71021e-09, No Iterations 0
DICPCG:  Solving for p, Initial residual = 2.71021e-09, Final residual = 2.71021e-09, No Iterations 0
diagonal:  Solving for rho, Initial residual = 0, Final residual = 0, No Iterations 0
time step continuity errors : sum local = 9.00305e-12, global = 9.27491e-13, cumulative = 1.50359e-10
DICPCG:  Solving for p, Initial residual = 2.71021e-09, Final residual = 2.71021e-09, No Iterations 0
DICPCG:  Solving for p, Initial residual = 2.71021e-09, Final residual = 2.71021e-09, No Iterations 0
DICPCG:  Solving for p, Initial residual = 2.71021e-09, Final residual = 2.71021e-09, No Iterations 0
diagonal:  Solving for rho, Initial residual = 0, Final residual = 0, No Iterations 0
time step continuity errors : sum local = 9.00305e-12, global = 9.27491e-13, cumulative = 1.51287e-10
PIMPLE: iteration 2
DILUPBiCGStab:  Solving for Ux, Initial residual = 6.67959e-09, Final residual = 2.14739e-14, No Iterations 1
DILUPBiCGStab:  Solving for Uy, Initial residual = 3.24214e-08, Final residual = 1.71249e-13, No Iterations 1
DILUPBiCGStab:  Solving for Uz, Initial residual = 6.53408e-09, Final residual = 2.30497e-14, No Iterations 1
DILUPBiCGStab:  Solving for O2, Initial residual = 2.18345e-08, Final residual = 1.95345e-13, No Iterations 1
DILUPBiCGStab:  Solving for H2, Initial residual = 1.75201e-09, Final residual = 1.77555e-15, No Iterations 1
DILUPBiCGStab:  Solving for H2O:  solution singularity
DILUPBiCGStab:  Solving for h, Initial residual = 2.51232e-09, Final residual = 2.19902e-15, No Iterations 1
min/max(T) = 200, 311.074
DICPCG:  Solving for p, Initial residual = 3.52456e-09, Final residual = 3.52456e-09, No Iterations 0
DICPCG:  Solving for p, Initial residual = 3.52456e-09, Final residual = 3.52456e-09, No Iterations 0
DICPCG:  Solving for p, Initial residual = 3.52456e-09, Final residual = 3.52456e-09, No Iterations 0
diagonal:  Solving for rho, Initial residual = 0, Final residual = 0, No Iterations 0
time step continuity errors : sum local = 1.17083e-11, global = -3.75912e-13, cumulative = 1.50911e-10
DICPCG:  Solving for p, Initial residual = 3.52456e-09, Final residual = 3.52456e-09, No Iterations 0
DICPCG:  Solving for p, Initial residual = 3.52456e-09, Final residual = 3.52456e-09, No Iterations 0
DICPCG:  Solving for p, Initial residual = 3.52456e-09, Final residual = 3.52456e-09, No Iterations 0
diagonal:  Solving for rho, Initial residual = 0, Final residual = 0, No Iterations 0
time step continuity errors : sum local = 1.17083e-11, global = -3.75912e-13, cumulative = 1.50535e-10
DILUPBiCGStab:  Solving for epsilon, Initial residual = 8.52231e-09, Final residual = 4.43289e-15, No Iterations 1
DILUPBiCGStab:  Solving for k, Initial residual = 6.16849e-09, Final residual = 1.72147e-13, No Iterations 1
PIMPLE: converged in 2 iterations
ExecutionTime = 1.27 s  ClockTime = 2 s

Courant Number mean: 3.32886e-11 max: 0.536154
deltaT = 1.67571e-06
Time = 0.0012954

diagonal:  Solving for rho, Initial residual = 0, Final residual = 0, No Iterations 0
PIMPLE: iteration 1
DILUPBiCGStab:  Solving for Ux, Initial residual = 8.96959e-09, Final residual = 2.55903e-14, No Iterations 1
DILUPBiCGStab:  Solving for Uy, Initial residual = 4.97903e-08, Final residual = 3.37596e-13, No Iterations 1
DILUPBiCGStab:  Solving for Uz, Initial residual = 6.05672e-09, Final residual = 2.46293e-14, No Iterations 1
DILUPBiCGStab:  Solving for O2, Initial residual = 8.86904e-08, Final residual = 7.30887e-13, No Iterations 1
DILUPBiCGStab:  Solving for H2, Initial residual = 1.98628e-09, Final residual = 2.87515e-15, No Iterations 1
DILUPBiCGStab:  Solving for H2O:  solution singularity
DILUPBiCGStab:  Solving for h, Initial residual = 3.37278e-09, Final residual = 3.31926e-15, No Iterations 1
min/max(T) = 211.982, 310.502
DICPCG:  Solving for p, Initial residual = 2.57149e-09, Final residual = 2.57149e-09, No Iterations 0
DICPCG:  Solving for p, Initial residual = 2.57149e-09, Final residual = 2.57149e-09, No Iterations 0
DICPCG:  Solving for p, Initial residual = 2.57149e-09, Final residual = 2.57149e-09, No Iterations 0
diagonal:  Solving for rho, Initial residual = 0, Final residual = 0, No Iterations 0
time step continuity errors : sum local = 8.54224e-12, global = 8.67589e-13, cumulative = 1.51403e-10
DICPCG:  Solving for p, Initial residual = 2.57149e-09, Final residual = 2.57149e-09, No Iterations 0
DICPCG:  Solving for p, Initial residual = 2.57149e-09, Final residual = 2.57149e-09, No Iterations 0
DICPCG:  Solving for p, Initial residual = 2.57149e-09, Final residual = 2.57149e-09, No Iterations 0
diagonal:  Solving for rho, Initial residual = 0, Final residual = 0, No Iterations 0
time step continuity errors : sum local = 8.54224e-12, global = 8.67589e-13, cumulative = 1.5227e-10
PIMPLE: iteration 2
DILUPBiCGStab:  Solving for Ux, Initial residual = 6.37815e-09, Final residual = 1.64816e-14, No Iterations 1
DILUPBiCGStab:  Solving for Uy, Initial residual = 3.25166e-08, Final residual = 1.35676e-13, No Iterations 1
DILUPBiCGStab:  Solving for Uz, Initial residual = 6.41202e-09, Final residual = 1.75652e-14, No Iterations 1
DILUPBiCGStab:  Solving for O2, Initial residual = 2.24539e-08, Final residual = 1.68568e-13, No Iterations 1
DILUPBiCGStab:  Solving for H2, Initial residual = 1.75059e-09, Final residual = 1.37609e-15, No Iterations 1
DILUPBiCGStab:  Solving for H2O:  solution singularity
DILUPBiCGStab:  Solving for h, Initial residual = 2.5239e-09, Final residual = 1.78788e-15, No Iterations 1
min/max(T) = 200, 310.351
DICPCG:  Solving for p, Initial residual = 3.33737e-09, Final residual = 3.33737e-09, No Iterations 0
DICPCG:  Solving for p, Initial residual = 3.33737e-09, Final residual = 3.33737e-09, No Iterations 0
DICPCG:  Solving for p, Initial residual = 3.33737e-09, Final residual = 3.33737e-09, No Iterations 0
diagonal:  Solving for rho, Initial residual = 0, Final residual = 0, No Iterations 0
time step continuity errors : sum local = 1.10864e-11, global = -3.89606e-13, cumulative = 1.51881e-10
DICPCG:  Solving for p, Initial residual = 3.33737e-09, Final residual = 3.33737e-09, No Iterations 0
DICPCG:  Solving for p, Initial residual = 3.33737e-09, Final residual = 3.33737e-09, No Iterations 0
DICPCG:  Solving for p, Initial residual = 3.33737e-09, Final residual = 3.33737e-09, No Iterations 0
diagonal:  Solving for rho, Initial residual = 0, Final residual = 0, No Iterations 0
time step continuity errors : sum local = 1.10864e-11, global = -3.89606e-13, cumulative = 1.51491e-10
DILUPBiCGStab:  Solving for epsilon, Initial residual = 9.14061e-09, Final residual = 2.27091e-15, No Iterations 1
DILUPBiCGStab:  Solving for k, Initial residual = 5.70204e-09, Final residual = 1.11283e-13, No Iterations 1
PIMPLE: converged in 2 iterations
ExecutionTime = 1.31 s  ClockTime = 2 s

Courant Number mean: 3.15448e-11 max: 0.543776
deltaT = 1.54081e-06
Time = 0.00129694

diagonal:  Solving for rho, Initial residual = 0, Final residual = 0, No Iterations 0
PIMPLE: iteration 1
DILUPBiCGStab:  Solving for Ux, Initial residual = 8.44277e-09, Final residual = 1.80878e-14, No Iterations 1
DILUPBiCGStab:  Solving for Uy, Initial residual = 5.05492e-08, Final residual = 2.60628e-13, No Iterations 1
DILUPBiCGStab:  Solving for Uz, Initial residual = 5.87459e-09, Final residual = 1.82623e-14, No Iterations 1
DILUPBiCGStab:  Solving for O2, Initial residual = 1.85996e-07, Final residual = 1.1835e-12, No Iterations 1
DILUPBiCGStab:  Solving for H2, Initial residual = 1.99854e-09, Final residual = 2.04234e-15, No Iterations 1
DILUPBiCGStab:  Solving for H2O:  solution singularity
DILUPBiCGStab:  Solving for h, Initial residual = 3.41206e-09, Final residual = 2.4392e-15, No Iterations 1
min/max(T) = 211.802, 309.972
DICPCG:  Solving for p, Initial residual = 2.40716e-09, Final residual = 2.40716e-09, No Iterations 0
DICPCG:  Solving for p, Initial residual = 2.40716e-09, Final residual = 2.40716e-09, No Iterations 0
DICPCG:  Solving for p, Initial residual = 2.40716e-09, Final residual = 2.40716e-09, No Iterations 0
diagonal:  Solving for rho, Initial residual = 0, Final residual = 0, No Iterations 0
time step continuity errors : sum local = 7.99633e-12, global = 8.04578e-13, cumulative = 1.52296e-10
DICPCG:  Solving for p, Initial residual = 2.40716e-09, Final residual = 2.40716e-09, No Iterations 0
DICPCG:  Solving for p, Initial residual = 2.40716e-09, Final residual = 2.40716e-09, No Iterations 0
DICPCG:  Solving for p, Initial residual = 2.40716e-09, Final residual = 2.40716e-09, No Iterations 0
diagonal:  Solving for rho, Initial residual = 0, Final residual = 0, No Iterations 0
time step continuity errors : sum local = 7.99633e-12, global = 8.04578e-13, cumulative = 1.531e-10
PIMPLE: iteration 2
DILUPBiCGStab:  Solving for Ux, Initial residual = 6.0841e-09, Final residual = 1.21087e-14, No Iterations 1
DILUPBiCGStab:  Solving for Uy, Initial residual = 3.26668e-08, Final residual = 1.05598e-13, No Iterations 1
DILUPBiCGStab:  Solving for Uz, Initial residual = 6.17992e-09, Final residual = 1.27725e-14, No Iterations 1
DILUPBiCGStab:  Solving for O2, Initial residual = 2.34808e-08, Final residual = 1.40228e-13, No Iterations 1
DILUPBiCGStab:  Solving for H2, Initial residual = 1.73633e-09, Final residual = 1.03815e-15, No Iterations 1
DILUPBiCGStab:  Solving for H2O:  solution singularity
DILUPBiCGStab:  Solving for h, Initial residual = 2.55913e-09, Final residual = 1.40011e-15, No Iterations 1
min/max(T) = 200, 310.123
DICPCG:  Solving for p, Initial residual = 3.11886e-09, Final residual = 3.11886e-09, No Iterations 0
DICPCG:  Solving for p, Initial residual = 3.11886e-09, Final residual = 3.11886e-09, No Iterations 0
DICPCG:  Solving for p, Initial residual = 3.11886e-09, Final residual = 3.11886e-09, No Iterations 0
diagonal:  Solving for rho, Initial residual = 0, Final residual = 0, No Iterations 0
time step continuity errors : sum local = 1.03606e-11, global = -3.91058e-13, cumulative = 1.52709e-10
DICPCG:  Solving for p, Initial residual = 3.11886e-09, Final residual = 3.11886e-09, No Iterations 0
DICPCG:  Solving for p, Initial residual = 3.11886e-09, Final residual = 3.11886e-09, No Iterations 0
DICPCG:  Solving for p, Initial residual = 3.11886e-09, Final residual = 3.11886e-09, No Iterations 0
diagonal:  Solving for rho, Initial residual = 0, Final residual = 0, No Iterations 0
time step continuity errors : sum local = 1.03606e-11, global = -3.91058e-13, cumulative = 1.52318e-10
DILUPBiCGStab:  Solving for epsilon, Initial residual = 9.70133e-09, Final residual = 9.99684e-16, No Iterations 1
DILUPBiCGStab:  Solving for k, Initial residual = 5.44906e-09, Final residual = 6.59537e-14, No Iterations 1
PIMPLE: converged in 2 iterations
ExecutionTime = 1.35 s  ClockTime = 2 s

Courant Number mean: 2.94766e-11 max: 0.556889
deltaT = 1.3834e-06
Time = 0.00129832

diagonal:  Solving for rho, Initial residual = 0, Final residual = 0, No Iterations 0
PIMPLE: iteration 1
DILUPBiCGStab:  Solving for Ux, Initial residual = 7.91244e-09, Final residual = 1.16042e-14, No Iterations 1
DILUPBiCGStab:  Solving for Uy, Initial residual = 5.22352e-08, Final residual = 1.9335e-13, No Iterations 1
DILUPBiCGStab:  Solving for Uz, Initial residual = 5.6018e-09, Final residual = 1.25839e-14, No Iterations 1
DILUPBiCGStab:  Solving for O2, Initial residual = 6.40636e-07, Final residual = 2.97676e-12, No Iterations 1
DILUPBiCGStab:  Solving for H2, Initial residual = 1.9842e-09, Final residual = 1.30299e-15, No Iterations 1
DILUPBiCGStab:  Solving for H2O:  solution singularity
DILUPBiCGStab:  Solving for h, Initial residual = 3.49186e-09, Final residual = 1.67937e-15, No Iterations 1
min/max(T) = 212.096, 310.229
DICPCG:  Solving for p, Initial residual = 2.20231e-09, Final residual = 2.20231e-09, No Iterations 0
DICPCG:  Solving for p, Initial residual = 2.20231e-09, Final residual = 2.20231e-09, No Iterations 0
DICPCG:  Solving for p, Initial residual = 2.20231e-09, Final residual = 2.20231e-09, No Iterations 0
diagonal:  Solving for rho, Initial residual = 0, Final residual = 0, No Iterations 0
time step continuity errors : sum local = 7.31582e-12, global = 7.39582e-13, cumulative = 1.53058e-10
DICPCG:  Solving for p, Initial residual = 2.20231e-09, Final residual = 2.20231e-09, No Iterations 0
DICPCG:  Solving for p, Initial residual = 2.20231e-09, Final residual = 2.20231e-09, No Iterations 0
DICPCG:  Solving for p, Initial residual = 2.20231e-09, Final residual = 2.20231e-09, No Iterations 0
diagonal:  Solving for rho, Initial residual = 0, Final residual = 0, No Iterations 0
time step continuity errors : sum local = 7.31582e-12, global = 7.39582e-13, cumulative = 1.53797e-10
PIMPLE: iteration 2
DILUPBiCGStab:  Solving for Ux, Initial residual = 5.71839e-09, Final residual = 8.17428e-15, No Iterations 1
DILUPBiCGStab:  Solving for Uy, Initial residual = 3.29819e-08, Final residual = 7.90921e-14, No Iterations 1
DILUPBiCGStab:  Solving for Uz, Initial residual = 5.829e-09, Final residual = 8.66294e-15, No Iterations 1
DILUPBiCGStab:  Solving for O2, Initial residual = 2.52544e-08, Final residual = 1.15891e-13, No Iterations 1
DILUPBiCGStab:  Solving for H2, Initial residual = 1.70653e-09, Final residual = 7.07055e-16, No Iterations 1
DILUPBiCGStab:  Solving for H2O:  solution singularity
DILUPBiCGStab:  Solving for h, Initial residual = 2.58001e-09, Final residual = 9.74515e-16, No Iterations 1
min/max(T) = 200, 310.341
DICPCG:  Solving for p, Initial residual = 2.84874e-09, Final residual = 2.84874e-09, No Iterations 0
DICPCG:  Solving for p, Initial residual = 2.84874e-09, Final residual = 2.84874e-09, No Iterations 0
DICPCG:  Solving for p, Initial residual = 2.84874e-09, Final residual = 2.84874e-09, No Iterations 0
diagonal:  Solving for rho, Initial residual = 0, Final residual = 0, No Iterations 0
time step continuity errors : sum local = 9.46321e-12, global = -3.75478e-13, cumulative = 1.53422e-10
DICPCG:  Solving for p, Initial residual = 2.84874e-09, Final residual = 2.84874e-09, No Iterations 0
DICPCG:  Solving for p, Initial residual = 2.84874e-09, Final residual = 2.84874e-09, No Iterations 0
DICPCG:  Solving for p, Initial residual = 2.84874e-09, Final residual = 2.84874e-09, No Iterations 0
diagonal:  Solving for rho, Initial residual = 0, Final residual = 0, No Iterations 0
time step continuity errors : sum local = 9.46321e-12, global = -3.75478e-13, cumulative = 1.53046e-10
DILUPBiCGStab:  Solving for epsilon, Initial residual = 1.01181e-08, Final residual = 4.27989e-16, No Iterations 1
DILUPBiCGStab:  Solving for k, Initial residual = 5.39958e-09, Final residual = 4.09139e-14, No Iterations 1
PIMPLE: converged in 2 iterations
ExecutionTime = 1.38 s  ClockTime = 2 s

Courant Number mean: 2.69015e-11 max: 0.567594
deltaT = 1.21866e-06
Time = 0.00129954

diagonal:  Solving for rho, Initial residual = 0, Final residual = 0, No Iterations 0
PIMPLE: iteration 1
DILUPBiCGStab:  Solving for Ux, Initial residual = 7.39306e-09, Final residual = 7.16136e-15, No Iterations 1
DILUPBiCGStab:  Solving for Uy, Initial residual = 5.52197e-08, Final residual = 1.38065e-13, No Iterations 1
DILUPBiCGStab:  Solving for Uz, Initial residual = 5.28139e-09, Final residual = 8.04803e-15, No Iterations 1
DILUPBiCGStab:  Solving for O2, Initial residual = 1.00085e-07, Final residual = 3.25367e-13, No Iterations 1
DILUPBiCGStab:  Solving for H2, Initial residual = 1.95337e-09, Final residual = 7.90511e-16, No Iterations 1
DILUPBiCGStab:  Solving for H2O:  solution singularity
DILUPBiCGStab:  Solving for h, Initial residual = 3.63427e-09, Final residual = 1.08121e-15, No Iterations 1
min/max(T) = 211.563, 310.396
DICPCG:  Solving for p, Initial residual = 1.98137e-09, Final residual = 1.98137e-09, No Iterations 0
DICPCG:  Solving for p, Initial residual = 1.98137e-09, Final residual = 1.98137e-09, No Iterations 0
DICPCG:  Solving for p, Initial residual = 1.98137e-09, Final residual = 1.98137e-09, No Iterations 0
diagonal:  Solving for rho, Initial residual = 0, Final residual = 0, No Iterations 0
time step continuity errors : sum local = 6.58189e-12, global = 6.8692e-13, cumulative = 1.53733e-10
[...]
min/max(T) = 200, 5000
DICPCG:  Solving for p, Initial residual = 4.55592e-09, Final residual = 4.55592e-09, No Iterations 0
DICPCG:  Solving for p, Initial residual = 4.55592e-09, Final residual = 4.55592e-09, No Iterations 0
DICPCG:  Solving for p, Initial residual = 4.55592e-09, Final residual = 4.55592e-09, No Iterations 0
diagonal:  Solving for rho, Initial residual = 0, Final residual = 0, No Iterations 0
time step continuity errors : sum local = 1.58091e-10, global = 4.22782e-11, cumulative = 1.32223e-09
DICPCG:  Solving for p, Initial residual = 4.55592e-09, Final residual = 4.55592e-09, No Iterations 0
DICPCG:  Solving for p, Initial residual = 4.55592e-09, Final residual = 4.55592e-09, No Iterations 0
DICPCG:  Solving for p, Initial residual = 4.55592e-09, Final residual = 4.55592e-09, No Iterations 0
diagonal:  Solving for rho, Initial residual = 0, Final residual = 0, No Iterations 0
time step continuity errors : sum local = 1.58091e-10, global = 4.22782e-11, cumulative = 1.36451e-09
DILUPBiCGStab:  Solving for epsilon, Initial residual = 5.46917e-06, Final residual = 7.80068e-18, No Iterations 1
bounding epsilon, min: -73225.7 max: 9.3662e+22 average: 3.26735e+18
DILUPBiCGStab:  Solving for k, Initial residual = 0.0159593, Final residual = 4.93261e-10, No Iterations 5
bounding k, min: -2.75388 max: 1.14047e+14 average: 1.43572e+10
PIMPLE: not converged within 3 iterations
ExecutionTime = 2.61 s  ClockTime = 3 s

Courant Number mean: 2.41299e-12 max: 1.89869
deltaT = 1.1226e-13
Time = 0.00130401

diagonal:  Solving for rho, Initial residual = 0, Final residual = 0, No Iterations 0
PIMPLE: iteration 1
DILUPBiCGStab:  Solving for Ux, Initial residual = 0.67173, Final residual = 5.16704e-09, No Iterations 5
DILUPBiCGStab:  Solving for Uy, Initial residual = 0.527167, Final residual = 3.06475e-09, No Iterations 5
DILUPBiCGStab:  Solving for Uz, Initial residual = 0.454244, Final residual = 8.82226e-09, No Iterations 5
DILUPBiCGStab:  Solving for O2, Initial residual = 0.547699, Final residual = 8.53748e-09, No Iterations 5
DILUPBiCGStab:  Solving for H2, Initial residual = 0.544942, Final residual = 8.59999e-09, No Iterations 5
DILUPBiCGStab:  Solving for H2O:  solution singularity
DILUPBiCGStab:  Solving for h, Initial residual = 0.530472, Final residual = 6.64122e-09, No Iterations 5
min/max(T) = 200, 5000
DICPCG:  Solving for p, Initial residual = 1.91751e-08, Final residual = 7.18138e-25, No Iterations 1
DICPCG:  Solving for p, Initial residual = 2.83222e-16, Final residual = 2.83222e-16, No Iterations 0
DICPCG:  Solving for p, Initial residual = 2.83222e-16, Final residual = 2.83222e-16, No Iterations 0
diagonal:  Solving for rho, Initial residual = 0, Final residual = 0, No Iterations 0
time step continuity errors : sum local = 1.02951e-16, global = 7.31562e-17, cumulative = 1.36451e-09
DICPCG:  Solving for p, Initial residual = 5.02897e-16, Final residual = 5.02897e-16, No Iterations 0
DICPCG:  Solving for p, Initial residual = 5.02897e-16, Final residual = 5.02897e-16, No Iterations 0
DICPCG:  Solving for p, Initial residual = 5.02897e-16, Final residual = 5.02897e-16, No Iterations 0
diagonal:  Solving for rho, Initial residual = 0, Final residual = 0, No Iterations 0
time step continuity errors : sum local = 1.10947e-16, global = 7.31562e-17, cumulative = 1.36451e-09
PIMPLE: iteration 2
DILUPBiCGStab:  Solving for Ux, Initial residual = 0.39323, Final residual = 3.82177e-09, No Iterations 5
DILUPBiCGStab:  Solving for Uy, Initial residual = 0.173271, Final residual = 1.5053e-09, No Iterations 5
DILUPBiCGStab:  Solving for Uz, Initial residual = 0.282379, Final residual = 9.20755e-09, No Iterations 4
DILUPBiCGStab:  Solving for O2, Initial residual = 0.29432, Final residual = 6.26811e-09, No Iterations 5
DILUPBiCGStab:  Solving for H2, Initial residual = 0.292823, Final residual = 6.2512e-09, No Iterations 5
DILUPBiCGStab:  Solving for H2O:  solution singularity
DILUPBiCGStab:  Solving for h, Initial residual = 0.22935, Final residual = 9.96627e-09, No Iterations 4
min/max(T) = 200, 5000
DICPCG:  Solving for p, Initial residual = 4.94758e-09, Final residual = 4.94758e-09, No Iterations 0
DICPCG:  Solving for p, Initial residual = 4.94758e-09, Final residual = 4.94758e-09, No Iterations 0
DICPCG:  Solving for p, Initial residual = 4.94758e-09, Final residual = 4.94758e-09, No Iterations 0
diagonal:  Solving for rho, Initial residual = 0, Final residual = 0, No Iterations 0
time step continuity errors : sum local = 1.80101e-10, global = 3.07304e-11, cumulative = 1.39524e-09
DICPCG:  Solving for p, Initial residual = 4.94758e-09, Final residual = 4.94758e-09, No Iterations 0
DICPCG:  Solving for p, Initial residual = 4.94758e-09, Final residual = 4.94758e-09, No Iterations 0
DICPCG:  Solving for p, Initial residual = 4.94758e-09, Final residual = 4.94758e-09, No Iterations 0
diagonal:  Solving for rho, Initial residual = 0, Final residual = 0, No Iterations 0
time step continuity errors : sum local = 1.80101e-10, global = 3.07304e-11, cumulative = 1.42597e-09
PIMPLE: iteration 3
DILUPBiCGStab:  Solving for Ux, Initial residual = 0.1249, Final residual = 6.83112e-09, No Iterations 4
DILUPBiCGStab:  Solving for Uy, Initial residual = 0.211324, Final residual = 3.35412e-09, No Iterations 5
DILUPBiCGStab:  Solving for Uz, Initial residual = 0.177411, Final residual = 6.36672e-09, No Iterations 4
DILUPBiCGStab:  Solving for O2, Initial residual = 0.060885, Final residual = 3.67331e-09, No Iterations 4
DILUPBiCGStab:  Solving for H2, Initial residual = 0.0610752, Final residual = 3.84166e-09, No Iterations 4
DILUPBiCGStab:  Solving for H2O:  solution singularity
DILUPBiCGStab:  Solving for h, Initial residual = 0.0415206, Final residual = 2.55236e-09, No Iterations 4
min/max(T) = 200, 5000
DICPCG:  Solving for p, Initial residual = 7.13796e-09, Final residual = 7.13796e-09, No Iterations 0
DICPCG:  Solving for p, Initial residual = 7.13796e-09, Final residual = 7.13796e-09, No Iterations 0
DICPCG:  Solving for p, Initial residual = 7.13796e-09, Final residual = 7.13796e-09, No Iterations 0
diagonal:  Solving for rho, Initial residual = 0, Final residual = 0, No Iterations 0
time step continuity errors : sum local = 2.59835e-10, global = 6.0567e-12, cumulative = 1.43203e-09
DICPCG:  Solving for p, Initial residual = 7.13796e-09, Final residual = 7.13796e-09, No Iterations 0
DICPCG:  Solving for p, Initial residual = 7.13796e-09, Final residual = 7.13796e-09, No Iterations 0
DICPCG:  Solving for p, Initial residual = 7.13796e-09, Final residual = 7.13796e-09, No Iterations 0
diagonal:  Solving for rho, Initial residual = 0, Final residual = 0, No Iterations 0
time step continuity errors : sum local = 2.59835e-10, global = 6.0567e-12, cumulative = 1.43808e-09
DILUPBiCGStab:  Solving for epsilon, Initial residual = 3.89668e-06, Final residual = 6.90513e-17, No Iterations 1
bounding epsilon, min: -1167.4 max: 9.37882e+22 average: 3.27394e+18
DILUPBiCGStab:  Solving for k, Initial residual = 0.00730097, Final residual = 5.53445e-09, No Iterations 3
bounding k, min: -0.0251816 max: 1.13947e+14 average: 1.43502e+10
PIMPLE: not converged within 3 iterations
ExecutionTime = 2.68 s  ClockTime = 3 s

Courant Number mean: 2.35096e-12 max: 1.899
deltaT = 2.95577e-14
Time = 0.00130401

diagonal:  Solving for rho, Initial residual = 0, Final residual = 0, No Iterations 0
PIMPLE: iteration 1
DILUPBiCGStab:  Solving for Ux, Initial residual = 0.450653, Final residual = 9.91434e-09, No Iterations 5
DILUPBiCGStab:  Solving for Uy, Initial residual = 0.516987, Final residual = 7.09565e-09, No Iterations 5
DILUPBiCGStab:  Solving for Uz, Initial residual = 0.277394, Final residual = 4.18713e-09, No Iterations 5
DILUPBiCGStab:  Solving for O2, Initial residual = 0.186658, Final residual = 5.61971e-09, No Iterations 5
DILUPBiCGStab:  Solving for H2, Initial residual = 0.180168, Final residual = 5.45639e-09, No Iterations 5
DILUPBiCGStab:  Solving for H2O:  solution singularity
DILUPBiCGStab:  Solving for h, Initial residual = 0.217636, Final residual = 8.66778e-09, No Iterations 5
min/max(T) = 200, 5000
DICPCG:  Solving for p, Initial residual = 1.13897e-08, Final residual = 3.3193e-25, No Iterations 1
DICPCG:  Solving for p, Initial residual = 1.88776e-16, Final residual = 1.88776e-16, No Iterations 0
DICPCG:  Solving for p, Initial residual = 1.88776e-16, Final residual = 1.88776e-16, No Iterations 0
diagonal:  Solving for rho, Initial residual = 0, Final residual = 0, No Iterations 0
time step continuity errors : sum local = 7.83675e-17, global = -5.37649e-17, cumulative = 1.43808e-09
DICPCG:  Solving for p, Initial residual = 2.20202e-16, Final residual = 2.20202e-16, No Iterations 0
DICPCG:  Solving for p, Initial residual = 2.20202e-16, Final residual = 2.20202e-16, No Iterations 0
DICPCG:  Solving for p, Initial residual = 2.20202e-16, Final residual = 2.20202e-16, No Iterations 0
diagonal:  Solving for rho, Initial residual = 0, Final residual = 0, No Iterations 0
time step continuity errors : sum local = 7.9533e-17, global = -5.37649e-17, cumulative = 1.43808e-09
PIMPLE: iteration 2
DILUPBiCGStab:  Solving for Ux, Initial residual = 0.12871, Final residual = 6.01291e-09, No Iterations 5
DILUPBiCGStab:  Solving for Uy, Initial residual = 0.161546, Final residual = 2.58918e-09, No Iterations 5
DILUPBiCGStab:  Solving for Uz, Initial residual = 0.122139, Final residual = 7.95363e-09, No Iterations 5
DILUPBiCGStab:  Solving for O2, Initial residual = 0.0541306, Final residual = 5.33374e-09, No Iterations 4
DILUPBiCGStab:  Solving for H2, Initial residual = 0.0518421, Final residual = 5.09726e-09, No Iterations 4
DILUPBiCGStab:  Solving for H2O:  solution singularity
DILUPBiCGStab:  Solving for h, Initial residual = 0.0615238, Final residual = 6.921e-09, No Iterations 4
min/max(T) = 200, 5000
DICPCG:  Solving for p, Initial residual = 3.39987e-09, Final residual = 3.39987e-09, No Iterations 0
DICPCG:  Solving for p, Initial residual = 3.39987e-09, Final residual = 3.39987e-09, No Iterations 0
DICPCG:  Solving for p, Initial residual = 3.39987e-09, Final residual = 3.39987e-09, No Iterations 0
diagonal:  Solving for rho, Initial residual = 0, Final residual = 0, No Iterations 0
time step continuity errors : sum local = 1.26086e-10, global = 4.97239e-11, cumulative = 1.48781e-09
DICPCG:  Solving for p, Initial residual = 3.39987e-09, Final residual = 3.39987e-09, No Iterations 0
DICPCG:  Solving for p, Initial residual = 3.39987e-09, Final residual = 3.39987e-09, No Iterations 0
DICPCG:  Solving for p, Initial residual = 3.39987e-09, Final residual = 3.39987e-09, No Iterations 0
diagonal:  Solving for rho, Initial residual = 0, Final residual = 0, No Iterations 0
time step continuity errors : sum local = 1.26086e-10, global = 4.97239e-11, cumulative = 1.53753e-09
PIMPLE: iteration 3
DILUPBiCGStab:  Solving for Ux, Initial residual = 0.0610474, Final residual = 7.25949e-09, No Iterations 4
DILUPBiCGStab:  Solving for Uy, Initial residual = 0.0880117, Final residual = 2.39488e-09, No Iterations 5
DILUPBiCGStab:  Solving for Uz, Initial residual = 0.0543382, Final residual = 5.00031e-09, No Iterations 5
DILUPBiCGStab:  Solving for O2, Initial residual = 0.0139015, Final residual = 3.69345e-09, No Iterations 4
DILUPBiCGStab:  Solving for H2, Initial residual = 0.0133238, Final residual = 3.54249e-09, No Iterations 4
DILUPBiCGStab:  Solving for H2O:  solution singularity
DILUPBiCGStab:  Solving for h, Initial residual = 0.0151331, Final residual = 4.32e-09, No Iterations 4
min/max(T) = 200, 5000
DICPCG:  Solving for p, Initial residual = 4.74239e-09, Final residual = 4.74239e-09, No Iterations 0
DICPCG:  Solving for p, Initial residual = 4.74239e-09, Final residual = 4.74239e-09, No Iterations 0
DICPCG:  Solving for p, Initial residual = 4.74239e-09, Final residual = 4.74239e-09, No Iterations 0
diagonal:  Solving for rho, Initial residual = 0, Final residual = 0, No Iterations 0
time step continuity errors : sum local = 1.75874e-10, global = 6.29546e-11, cumulative = 1.60049e-09
DICPCG:  Solving for p, Initial residual = 4.74239e-09, Final residual = 4.74239e-09, No Iterations 0
DICPCG:  Solving for p, Initial residual = 4.74239e-09, Final residual = 4.74239e-09, No Iterations 0
DICPCG:  Solving for p, Initial residual = 4.74239e-09, Final residual = 4.74239e-09, No Iterations 0
diagonal:  Solving for rho, Initial residual = 0, Final residual = 0, No Iterations 0
time step continuity errors : sum local = 1.75874e-10, global = 6.29546e-11, cumulative = 1.66344e-09
DILUPBiCGStab:  Solving for epsilon, Initial residual = 1.20624e-07, Final residual = 2.88545e-16, No Iterations 1
bounding epsilon, min: -25.174 max: 9.38211e+22 average: 3.27571e+18
DILUPBiCGStab:  Solving for k, Initial residual = 0.000644727, Final residual = 8.51885e-09, No Iterations 3
bounding k, min: -0.000313518 max: 1.1392e+14 average: 1.43482e+10
PIMPLE: not converged within 3 iterations
ExecutionTime = 2.75 s  ClockTime = 3 s


    From virtual bool Foam::regIOobject::readIfModified()
    in file db/regIOobject/regIOobjectRead.C at line 266
        Re-reading object controlDict from file "/cfs/klemming/home/c/chhua/naiss2024-5-347/OpenFOAM/chhua-v2406/run/Bunkering/Bunkering_03/system/controlDict"
--> FOAM Warning : 


    From static Foam::autoPtr<Foam::functionObject> Foam::functionObject::New(const Foam::word&, const Foam::Time&, const Foam::dictionary&)
    in file db/functionObjects/functionObject/functionObject.C at line 129.
--> loading function object 'CourantNo'

Courant Number mean: 2.33431e-12 max: 1.89909
deltaT = 7.78206e-15
--> FOAM Warning : 
    From virtual Foam::Time& Foam::Time::operator++()
    in file db/Time/Time.C at line 1225
    Increased the timePrecision from 6 to 13 to distinguish between timeNames at time 0.001304006605305
--> FOAM Warning : 
    From virtual Foam::Time& Foam::Time::operator++()
    in file db/Time/Time.C at line 1255
    Current time name 0.001304006605305 is set to an instance prior to the previous one 0.00130401
    This might result in temporal discontinuities.
Time = 0.001304006605305

diagonal:  Solving for rho, Initial residual = 0, Final residual = 0, No Iterations 0
PIMPLE: iteration 1
DILUPBiCGStab:  Solving for Ux, Initial residual = 0.173183, Final residual = 8.84481e-09, No Iterations 4
DILUPBiCGStab:  Solving for Uy, Initial residual = 0.182244, Final residual = 3.64535e-10, No Iterations 6
DILUPBiCGStab:  Solving for Uz, Initial residual = 0.0310474, Final residual = 7.99452e-09, No Iterations 5
DILUPBiCGStab:  Solving for O2, Initial residual = 0.019024, Final residual = 2.81242e-09, No Iterations 4
DILUPBiCGStab:  Solving for H2, Initial residual = 0.0179383, Final residual = 2.86316e-09, No Iterations 4
DILUPBiCGStab:  Solving for H2O:  solution singularity
DILUPBiCGStab:  Solving for h, Initial residual = 0.0286516, Final residual = 3.38398e-09, No Iterations 4
min/max(T) = 200, 5000
DICPCG:  Solving for p, Initial residual = 6.50688e-09, Final residual = 6.50688e-09, No Iterations 0
DICPCG:  Solving for p, Initial residual = 6.50688e-09, Final residual = 6.50688e-09, No Iterations 0
DICPCG:  Solving for p, Initial residual = 6.50688e-09, Final residual = 6.50688e-09, No Iterations 0
diagonal:  Solving for rho, Initial residual = 0, Final residual = 0, No Iterations 0
time step continuity errors : sum local = 2.41311e-10, global = 8.05889e-11, cumulative = 1.74403e-09
DICPCG:  Solving for p, Initial residual = 6.50688e-09, Final residual = 6.50688e-09, No Iterations 0
DICPCG:  Solving for p, Initial residual = 6.50688e-09, Final residual = 6.50688e-09, No Iterations 0
DICPCG:  Solving for p, Initial residual = 6.50688e-09, Final residual = 6.50688e-09, No Iterations 0
diagonal:  Solving for rho, Initial residual = 0, Final residual = 0, No Iterations 0
time step continuity errors : sum local = 2.41311e-10, global = 8.05889e-11, cumulative = 1.82462e-09
PIMPLE: iteration 2
DILUPBiCGStab:  Solving for Ux, Initial residual = 0.0531433, Final residual = 4.95096e-09, No Iterations 4
DILUPBiCGStab:  Solving for Uy, Initial residual = 0.0435815, Final residual = 6.82049e-09, No Iterations 4
DILUPBiCGStab:  Solving for Uz, Initial residual = 0.0097167, Final residual = 8.45618e-09, No Iterations 3
DILUPBiCGStab:  Solving for O2, Initial residual = 0.0048956, Final residual = 3.40761e-09, No Iterations 3
DILUPBiCGStab:  Solving for H2, Initial residual = 0.0046153, Final residual = 4.00881e-09, No Iterations 3
DILUPBiCGStab:  Solving for H2O:  solution singularity
DILUPBiCGStab:  Solving for h, Initial residual = 0.0071518, Final residual = 5.27829e-09, No Iterations 3
min/max(T) = 200, 5000
DICPCG:  Solving for p, Initial residual = 7.86639e-09, Final residual = 7.86639e-09, No Iterations 0
DICPCG:  Solving for p, Initial residual = 7.86639e-09, Final residual = 7.86639e-09, No Iterations 0
DICPCG:  Solving for p, Initial residual = 7.86639e-09, Final residual = 7.86639e-09, No Iterations 0
diagonal:  Solving for rho, Initial residual = 0, Final residual = 0, No Iterations 0
time step continuity errors : sum local = 2.91729e-10, global = 9.98723e-11, cumulative = 1.92449e-09
DICPCG:  Solving for p, Initial residual = 7.86639e-09, Final residual = 7.86639e-09, No Iterations 0
DICPCG:  Solving for p, Initial residual = 7.86639e-09, Final residual = 7.86639e-09, No Iterations 0
DICPCG:  Solving for p, Initial residual = 7.86639e-09, Final residual = 7.86639e-09, No Iterations 0
diagonal:  Solving for rho, Initial residual = 0, Final residual = 0, No Iterations 0
time step continuity errors : sum local = 2.91729e-10, global = 9.98723e-11, cumulative = 2.02436e-09
PIMPLE: iteration 3
DILUPBiCGStab:  Solving for Ux, Initial residual = 0.0125811, Final residual = 2.85601e-09, No Iterations 4
DILUPBiCGStab:  Solving for Uy, Initial residual = 0.0246651, Final residual = 6.0033e-09, No Iterations 5
DILUPBiCGStab:  Solving for Uz, Initial residual = 0.00651432, Final residual = 5.20995e-09, No Iterations 4
DILUPBiCGStab:  Solving for O2, Initial residual = 0.00116289, Final residual = 9.04415e-09, No Iterations 3
DILUPBiCGStab:  Solving for H2, Initial residual = 0.00109657, Final residual = 1.28489e-09, No Iterations 3
DILUPBiCGStab:  Solving for H2O:  solution singularity
DILUPBiCGStab:  Solving for h, Initial residual = 0.00167732, Final residual = 1.73515e-09, No Iterations 3
min/max(T) = 200, 5000
DICPCG:  Solving for p, Initial residual = 8.40057e-09, Final residual = 8.40057e-09, No Iterations 0
DICPCG:  Solving for p, Initial residual = 8.40057e-09, Final residual = 8.40057e-09, No Iterations 0
DICPCG:  Solving for p, Initial residual = 8.40057e-09, Final residual = 8.40057e-09, No Iterations 0
diagonal:  Solving for rho, Initial residual = 0, Final residual = 0, No Iterations 0
time step continuity errors : sum local = 3.11539e-10, global = 1.05221e-10, cumulative = 2.12958e-09
DICPCG:  Solving for p, Initial residual = 8.40057e-09, Final residual = 8.40057e-09, No Iterations 0
DICPCG:  Solving for p, Initial residual = 8.40057e-09, Final residual = 8.40057e-09, No Iterations 0
DICPCG:  Solving for p, Initial residual = 8.40057e-09, Final residual = 8.40057e-09, No Iterations 0
diagonal:  Solving for rho, Initial residual = 0, Final residual = 0, No Iterations 0
time step continuity errors : sum local = 3.11539e-10, global = 1.05221e-10, cumulative = 2.23481e-09
DILUPBiCGStab:  Solving for epsilon, Initial residual = 1.52267e-08, Final residual = 8.99882e-30, No Iterations 1
bounding epsilon, min: -1.58615 max: 9.38298e+22 average: 3.27438e+18
DILUPBiCGStab:  Solving for k, Initial residual = 3.99622e-05, Final residual = 8.72658e-09, No Iterations 2
bounding k, min: -3.81465e-05 max: 1.13914e+14 average: 1.43223e+10
PIMPLE: not converged within 3 iterations
ExecutionTime = 2.84 s  ClockTime = 4 s

End

Finalising parallel run
